
     RDKit          2D

 25 25  0  0  0  0  0  0  0  0999 V2000
   -0.3918    0.5872    0.0000 C   0  0  0  0  0  0  0  0  0  0  0  0
   -0.3918    1.4122    0.0000 O   0  0  0  0  0  0  0  0  0  0  0  0
   -1.1063    0.1747    0.0000 C   0  0  0  0  0  0  0  0  0  0  0  0
   -0.6214   -0.4927    0.0000 C   0  0  0  0  0  0  0  0  0  0  0  0
   -0.9569   -1.2464    0.0000 C   0  0  0  0  0  0  0  0  0  0  0  0
   -0.4720   -1.9138    0.0000 C   0  0  0  0  0  0  0  0  0  0  0  0
   -1.7774   -1.3326    0.0000 C   0  0  0  0  0  0  0  0  0  0  0  0
    0.1991   -0.4065    0.0000 O   0  0  0  0  0  0  0  0  0  0  0  0
   -1.7194   -0.3773    0.0000 N   0  0  0  0  0  0  0  0  0  0  0  0
   -2.4338    0.0352    0.0000 C   0  0  0  0  0  0  0  0  0  0  0  0
   -3.1875   -0.3004    0.0000 O   0  0  0  0  0  0  0  0  0  0  0  0
   -2.2623    0.8421    0.0000 C   0  0  0  0  0  0  0  0  0  0  0  0
   -2.8143    1.4552    0.0000 C   0  0  0  0  0  0  0  0  0  0  0  0
   -1.4418    0.9284    0.0000 C   0  0  0  0  0  0  0  0  0  0  0  0
   -1.0293    1.6429    0.0000 O   0  0  0  0  0  0  0  0  0  0  0  0
    0.3227    0.1747    0.0000 S   0  0  0  0  0  0  0  0  0  0  0  0
    1.0371    0.5872    0.0000 C   0  0  0  0  0  0  0  0  0  0  0  0
    1.7516    0.1747    0.0000 C   0  0  0  0  0  0  0  0  0  0  0  0
    1.7516   -0.6503    0.0000 C   0  0  0  0  0  0  0  0  0  0  0  0
    2.4661   -1.0628    0.0000 O   0  0  0  0  0  0  0  0  0  0  0  0
    1.0371   -1.0628    0.0000 O   0  0  0  0  0  0  0  0  0  0  0  0
    2.4661    0.5872    0.0000 N   0  0  0  0  0  0  0  0  0  0  0  0
    3.1805    0.1747    0.0000 C   0  0  0  0  0  0  0  0  0  0  0  0
    3.1805   -0.6503    0.0000 C   0  0  0  0  0  0  0  0  0  0  0  0
    3.8950    0.5872    0.0000 O   0  0  0  0  0  0  0  0  0  0  0  0
  1  2  2  0
  3  1  1  6
  3  4  1  0
  3  9  1  0
 14  3  1  0
  4  5  1  0
  4  8  1  1
  5  6  1  0
  5  7  1  0
 10  9  1  0
 10 11  2  0
 12 10  1  0
 12 13  1  6
 14 12  1  0
 14 15  1  6
  1 16  1  0
 17 16  1  0
 18 17  1  6
 18 19  1  0
 19 20  2  0
 19 21  1  0
 18 22  1  0
 23 22  1  0
 23 24  1  0
 23 25  2  0
M  END

> <chembl_id>
CHEMBL374308

> <chembl_pref_name>
LACTACYSTIN

$$$$

     RDKit          2D

 31 34  0  0  0  0  0  0  0  0999 V2000
   15.4626  -27.3663    0.0000 C   0  0  0  0  0  0  0  0  0  0  0  0
   14.7925  -26.8820    0.0000 N   0  0  0  0  0  0  0  0  0  0  0  0
   14.1267  -27.3663    0.0000 C   0  0  0  0  0  0  0  0  0  0  0  0
   15.2029  -28.1506    0.0000 C   0  0  0  0  0  0  0  0  0  0  0  0
   14.3779  -28.1506    0.0000 C   0  0  0  0  0  0  0  0  0  0  0  0
   14.1242  -28.9354    0.0000 C   0  0  0  0  0  0  0  0  0  0  0  0
   14.7925  -29.4222    0.0000 C   0  0  0  0  0  0  0  0  0  0  0  0
   15.4607  -28.9354    0.0000 C   0  0  0  0  0  0  0  0  0  0  0  0
   13.5488  -28.1465    0.0000 H   0  0  0  0  0  0  0  0  0  0  0  0
   16.0238  -28.1506    0.0000 S   0  0  0  0  0  0  0  0  0  0  0  0
   16.4385  -28.8656    0.0000 C   0  0  0  0  0  0  0  0  0  0  0  0
   17.2635  -28.8656    0.0000 C   0  0  0  0  0  0  0  0  0  0  0  0
   16.0239  -29.5807    0.0000 O   0  0  0  0  0  0  0  0  0  0  0  0
   16.2478  -27.1136    0.0000 O   0  0  0  0  0  0  0  0  0  0  0  0
   13.3416  -27.1129    0.0000 O   0  0  0  0  0  0  0  0  0  0  0  0
   13.3393  -29.1891    0.0000 S   0  0  0  0  0  0  0  0  0  0  0  0
   12.7252  -28.6398    0.0000 C   0  0  0  0  0  0  0  0  0  0  0  0
   11.9403  -28.8934    0.0000 C   0  0  0  0  0  0  0  0  0  0  0  0
   12.9001  -27.8328    0.0000 O   0  0  0  0  0  0  0  0  0  0  0  0
   17.6739  -28.1505    0.0000 C   0  0  0  0  0  0  0  0  0  0  0  0
   11.7696  -29.7006    0.0000 C   0  0  0  0  0  0  0  0  0  0  0  0
   10.9864  -29.9513    0.0000 C   0  0  0  0  0  0  0  0  0  0  0  0
   10.8155  -30.7576    0.0000 C   0  0  0  0  0  0  0  0  0  0  0  0
   11.4300  -31.3119    0.0000 C   0  0  0  0  0  0  0  0  0  0  0  0
   12.2181  -31.0545    0.0000 C   0  0  0  0  0  0  0  0  0  0  0  0
   12.3852  -30.2488    0.0000 C   0  0  0  0  0  0  0  0  0  0  0  0
   18.4959  -28.1532    0.0000 C   0  0  0  0  0  0  0  0  0  0  0  0
   18.9104  -27.4390    0.0000 C   0  0  0  0  0  0  0  0  0  0  0  0
   18.4957  -26.7230    0.0000 C   0  0  0  0  0  0  0  0  0  0  0  0
   17.6665  -26.7257    0.0000 C   0  0  0  0  0  0  0  0  0  0  0  0
   17.2599  -27.4405    0.0000 C   0  0  0  0  0  0  0  0  0  0  0  0
  4  1  1  0
  1  2  1  0
  2  3  1  0
  3  5  1  0
  4  5  1  0
  5  6  1  0
  6  7  1  0
  7  8  1  0
  8  4  1  0
  5  9  1  6
  4 10  1  6
 10 11  1  0
 11 12  1  0
 11 13  2  0
  1 14  2  0
  3 15  2  0
  6 16  1  0
 16 17  1  0
 17 18  1  0
 17 19  2  0
 12 20  1  0
 18 21  1  0
 21 22  2  0
 22 23  1  0
 23 24  2  0
 24 25  1  0
 25 26  2  0
 26 21  1  0
 20 27  2  0
 27 28  1  0
 28 29  2  0
 29 30  1  0
 30 31  2  0
 31 20  1  0
M  END

> <chembl_id>
CHEMBL4078511

> <chembl_pref_name>
None

$$$$

     RDKit          2D

 21 22  0  0  0  0  0  0  0  0999 V2000
    1.7572   -3.0608    0.0000 S   0  0  0  0  0  0  0  0  0  0  0  0
    2.3118   -1.3538    0.0000 O   0  0  0  0  0  0  0  0  0  0  0  0
   -0.5923   -1.3538    0.0000 O   0  0  0  0  0  0  0  0  0  0  0  0
    1.9065   -4.4819    0.0000 O   0  0  0  0  0  0  0  0  0  0  0  0
    0.8597   -1.1238    0.0000 N   0  0  0  0  0  0  0  0  0  0  0  0
    1.5272   -1.6087    0.0000 C   0  0  0  0  0  0  0  0  0  0  0  0
    0.1923   -1.6087    0.0000 C   0  0  0  0  0  0  0  0  0  0  0  0
    1.2722   -2.3934    0.0000 C   0  0  0  0  0  0  0  0  0  0  0  0
    0.8597   -0.2988    0.0000 C   0  0  0  0  0  0  0  0  0  0  0  0
    0.4472   -2.3934    0.0000 C   0  0  0  0  0  0  0  0  0  0  0  0
    0.1453    0.1137    0.0000 C   0  0  0  0  0  0  0  0  0  0  0  0
    1.5742    0.1137    0.0000 C   0  0  0  0  0  0  0  0  0  0  0  0
    0.8597    1.3512    0.0000 C   0  0  0  0  0  0  0  0  0  0  0  0
    0.8597    2.1762    0.0000 C   0  0  0  0  0  0  0  0  0  0  0  0
    0.1453    0.9387    0.0000 C   0  0  0  0  0  0  0  0  0  0  0  0
    1.5742    0.9387    0.0000 C   0  0  0  0  0  0  0  0  0  0  0  0
    1.4216   -3.8145    0.0000 C   0  0  0  0  0  0  0  0  0  0  0  0
    0.8597    3.0012    0.0000 C   0  0  0  0  0  0  0  0  0  0  0  0
    1.6847    2.1762    0.0000 C   0  0  0  0  0  0  0  0  0  0  0  0
    0.0347    2.1762    0.0000 C   0  0  0  0  0  0  0  0  0  0  0  0
    0.6011   -3.9007    0.0000 C   0  0  0  0  0  0  0  0  0  0  0  0
  1  8  1  0
  1 17  1  0
  2  6  2  0
  3  7  2  0
  4 17  2  0
  5  6  1  0
  5  7  1  0
  5  9  1  0
  6  8  1  0
  7 10  1  0
  8 10  1  0
  9 11  2  0
  9 12  1  0
 11 15  1  0
 12 16  2  0
 13 14  1  0
 13 15  2  0
 13 16  1  0
 14 18  1  0
 14 19  1  0
 14 20  1  0
 17 21  1  0
M  END

> <chembl_id>
CHEMBL1401740

> <chembl_pref_name>
None

$$$$

     RDKit          2D

 15 14  0  0  1  0  0  0  0  0999 V2000
   -3.8833   -3.1875    0.0000 C   0  0  0  0  0  0  0  0  0  0  0  0
   -3.1689   -2.7750    0.0000 C   0  0  0  0  0  0  0  0  0  0  0  0
   -4.5978   -2.7750    0.0000 C   0  0  0  0  0  0  0  0  0  0  0  0
   -3.1689   -1.9500    0.0000 O   0  0  0  0  0  0  0  0  0  0  0  0
   -2.4544   -3.1875    0.0000 C   0  0  0  0  0  0  0  0  0  0  0  0
   -2.4544   -4.0125    0.0000 C   0  0  0  0  0  0  0  0  0  0  0  0
   -1.7399   -2.7750    0.0000 C   0  0  0  0  0  0  0  0  0  0  0  0
   -1.0254   -3.1875    0.0000 S   0  0  0  0  0  0  0  0  0  0  0  0
   -1.7399   -1.9500    0.0000 O   0  0  0  0  0  0  0  0  0  0  0  0
   -0.3110   -2.7750    0.0000 C   0  0  0  0  0  0  0  0  0  0  0  0
    0.4035   -3.1875    0.0000 C   0  0  0  0  0  0  0  0  0  0  0  0
    1.1180   -2.7750    0.0000 N   0  0  0  0  0  0  0  0  0  0  0  0
    1.8324   -3.1875    0.0000 C   0  0  0  0  0  0  0  0  0  0  0  0
    2.5469   -2.7750    0.0000 C   0  0  0  0  0  0  0  0  0  0  0  0
    1.8324   -4.0125    0.0000 O   0  0  0  0  0  0  0  0  0  0  0  0
  7  8  1  0
  7  9  2  0
  2  5  1  0
  8 10  1  0
  1  3  1  0
 10 11  1  0
  5  6  1  6
 11 12  1  0
  1  2  1  0
 12 13  1  0
  5  7  1  0
 13 14  1  0
  2  4  1  6
 13 15  2  0
M  END

> <chembl_id>
CHEMBL244833

> <chembl_pref_name>
None

$$$$

     RDKit          2D

 18 18  0  0  0  0  0  0  0  0999 V2000
   -4.6718  -12.8450    0.0000 C   0  0  0  0  0  0  0  0  0  0  0  0
   -4.6732  -13.6726    0.0000 C   0  0  0  0  0  0  0  0  0  0  0  0
   -3.9603  -14.0854    0.0000 C   0  0  0  0  0  0  0  0  0  0  0  0
   -3.2409  -13.6720    0.0000 C   0  0  0  0  0  0  0  0  0  0  0  0
   -3.2441  -12.8410    0.0000 C   0  0  0  0  0  0  0  0  0  0  0  0
   -3.9623  -12.4321    0.0000 C   0  0  0  0  0  0  0  0  0  0  0  0
   -5.3815  -12.4230    0.0000 O   0  0  0  0  0  0  0  0  0  0  0  0
   -2.5262  -14.0838    0.0000 C   0  0  0  0  0  0  0  0  0  0  0  0
   -1.8121  -13.6707    0.0000 C   0  0  0  0  0  0  0  0  0  0  0  0
   -1.0972  -14.0825    0.0000 C   0  0  0  0  0  0  0  0  0  0  0  0
   -0.3831  -13.6694    0.0000 S   0  0  0  0  0  0  0  0  0  0  0  0
   -1.0964  -14.9075    0.0000 O   0  0  0  0  0  0  0  0  0  0  0  0
    0.3316  -14.0812    0.0000 C   0  0  0  0  0  0  0  0  0  0  0  0
    1.0457  -13.6680    0.0000 C   0  0  0  0  0  0  0  0  0  0  0  0
    1.7606  -14.0799    0.0000 N   0  0  0  0  0  0  0  0  0  0  0  0
    2.4746  -13.6668    0.0000 C   0  0  0  0  0  0  0  0  0  0  0  0
    3.1894  -14.0787    0.0000 C   0  0  0  0  0  0  0  0  0  0  0  0
    2.4739  -12.8419    0.0000 O   0  0  0  0  0  0  0  0  0  0  0  0
  8  9  2  0
  4  5  1  0
  9 10  1  0
  2  3  1  0
 10 11  1  0
  5  6  2  0
 10 12  2  0
  6  1  1  0
 11 13  1  0
  1  2  2  0
 13 14  1  0
  1  7  1  0
 14 15  1  0
  3  4  2  0
 15 16  1  0
  4  8  1  0
 16 17  1  0
 16 18  2  0
M  END

> <chembl_id>
CHEMBL368949

> <chembl_pref_name>
None

$$$$

     RDKit          2D

 56 59  0  0  1  0  0  0  0  0999 V2000
    5.5125   -0.9417    0.0000 N   0  0  0  0  0  0  0  0  0  0  0  0
    5.5125   -2.2917    0.0000 C   0  0  0  0  0  0  0  0  0  0  0  0
    4.7292   -0.7167    0.0000 C   0  0  0  0  0  0  0  0  0  0  0  0
    4.7292    0.0958    0.0000 C   0  0  0  0  0  0  0  0  0  0  0  0
    5.2750   -3.0292    0.0000 C   0  0  0  0  0  0  0  0  0  0  0  0
    4.4250   -3.0292    0.0000 C   0  0  0  0  0  0  0  0  0  0  0  0
    5.5125    0.3458    0.0000 N   0  0  0  0  0  0  0  0  0  0  0  0
    5.9792   -0.2917    0.0000 C   0  0  0  0  0  0  0  0  0  0  0  0
    4.8375   -1.8042    0.0000 O   0  0  0  0  0  0  0  0  0  0  0  0
    9.2167   -1.6500    0.0000 C   0  0  0  0  0  0  0  0  0  0  0  0
    2.3167   -3.0125    0.0000 P   0  0  0  0  0  0  0  0  0  0  0  0
    1.2292   -4.3292    0.0000 P   0  0  0  0  0  0  0  0  0  0  0  0
    1.7625   -3.6792    0.0000 O   0  0  0  0  0  0  0  0  0  0  0  0
    4.1917   -2.2625    0.0000 C   0  0  0  0  0  0  0  0  0  0  0  0
    8.7917   -2.3792    0.0000 C   0  0  0  0  0  0  0  0  0  0  0  0
    4.3000   -4.4292    0.0000 P   0  0  0  0  0  0  0  0  0  0  0  0
    9.6292   -2.3792    0.0000 C   0  0  0  0  0  0  0  0  0  0  0  0
    4.0542    0.5000    0.0000 C   0  0  0  0  0  0  0  0  0  0  0  0
    4.0292   -1.1000    0.0000 N   0  0  0  0  0  0  0  0  0  0  0  0
    3.9667   -3.6792    0.0000 O   0  0  0  0  0  0  0  0  0  0  0  0
    3.4042    0.1125    0.0000 N   0  0  0  0  0  0  0  0  0  0  0  0
    3.1042   -6.4792    0.0000 C   0  0  0  0  0  0  0  0  0  0  0  0
    1.4042   -6.3917    0.0000 C   0  0  0  0  0  0  0  0  0  0  0  0
    3.4667   -2.0292    0.0000 C   0  0  0  0  0  0  0  0  0  0  0  0
    2.3792   -6.1167    0.0000 C   0  0  0  0  0  0  0  0  0  0  0  0
    8.0667   -2.8000    0.0000 C   0  0  0  0  0  0  0  0  0  0  0  0
    3.4042   -0.6875    0.0000 C   0  0  0  0  0  0  0  0  0  0  0  0
    8.0667   -3.6292    0.0000 C   0  0  0  0  0  0  0  0  0  0  0  0
    6.0542   -6.5792    0.0000 C   0  0  0  0  0  0  0  0  0  0  0  0
    2.8292   -2.4042    0.0000 O   0  0  0  0  0  0  0  0  0  0  0  0
    0.6250   -5.0792    0.0000 O   0  0  0  0  0  0  0  0  0  0  0  0
    2.9292   -3.5417    0.0000 O   0  0  0  0  0  0  0  0  0  0  0  0
    0.6417   -3.8292    0.0000 O   0  0  0  0  0  0  0  0  0  0  0  0
    4.9750   -4.1167    0.0000 O   0  0  0  0  0  0  0  0  0  0  0  0
    9.2042   -0.8167    0.0000 C   0  0  0  0  0  0  0  0  0  0  0  0
    0.6167   -6.0292    0.0000 C   0  0  0  0  0  0  0  0  0  0  0  0
    5.3625   -6.1417    0.0000 C   0  0  0  0  0  0  0  0  0  0  0  0
    3.1042   -7.3042    0.0000 O   0  0  0  0  0  0  0  0  0  0  0  0
    6.0542   -7.4542    0.0000 O   0  0  0  0  0  0  0  0  0  0  0  0
    8.7875   -4.0500    0.0000 O   0  0  0  0  0  0  0  0  0  0  0  0
    5.7292   -3.7042    0.0000 O   0  0  0  0  0  0  0  0  0  0  0  0
    3.9167   -6.1167    0.0000 N   0  0  0  0  0  0  0  0  0  0  0  0
    1.6667   -2.4542    0.0000 O   0  0  0  0  0  0  0  0  0  0  0  0
    1.8417   -4.8292    0.0000 O   0  0  0  0  0  0  0  0  0  0  0  0
    3.6042   -4.7292    0.0000 O   0  0  0  0  0  0  0  0  0  0  0  0
    4.6875   -5.2917    0.0000 O   0  0  0  0  0  0  0  0  0  0  0  0
    4.0542    1.3208    0.0000 N   0  0  0  0  0  0  0  0  0  0  0  0
    6.7042   -6.1667    0.0000 N   0  0  0  0  0  0  0  0  0  0  0  0
    7.3417   -4.0500    0.0000 S   0  0  0  0  0  0  0  0  0  0  0  0
    4.6292   -6.5292    0.0000 C   0  0  0  0  0  0  0  0  0  0  0  0
    2.3792   -5.3250    0.0000 O   0  0  0  0  0  0  0  0  0  0  0  0
    1.4042   -5.6125    0.0000 C   0  0  0  0  0  0  0  0  0  0  0  0
    1.4250   -7.1750    0.0000 C   0  0  0  0  0  0  0  0  0  0  0  0
    6.7042   -5.3375    0.0000 C   0  0  0  0  0  0  0  0  0  0  0  0
    7.3417   -4.8792    0.0000 C   0  0  0  0  0  0  0  0  0  0  0  0
    8.0667   -1.9542    0.0000 H   0  0  0  0  0  0  0  0  0  0  0  0
  2  1  1  1
  3  1  1  0
  4  3  2  0
  5  2  1  0
  6  5  1  0
  7  8  2  0
  8  1  1  0
  9  2  1  0
 10 15  1  0
 11 30  1  0
 12 13  1  0
 13 11  1  0
 14  9  1  0
 15 26  1  0
 16 20  1  0
 17 15  1  0
 18  4  1  0
 19  3  1  0
  6 20  1  6
 21 27  1  0
 22 25  1  0
 23 36  1  0
 14 24  1  1
 25 23  1  0
 26 28  1  0
 27 19  2  0
 28 49  1  0
 29 37  1  0
 30 24  1  0
 31 12  1  0
 32 11  2  0
 33 12  2  0
 34 16  2  0
 35 10  2  0
 36 31  1  0
 37 50  1  0
 38 22  2  0
 39 29  2  0
 40 28  2  0
  5 41  1  6
 42 22  1  0
 43 11  1  0
 44 12  1  0
 45 16  1  0
 46 16  1  0
 47 18  1  0
 48 29  1  0
 49 55  1  0
 50 42  1  0
 51 25  1  0
 52 23  1  0
 53 23  1  0
 54 48  1  0
 55 54  1  0
 15 56  1  1
  4  7  1  0
  6 14  1  0
 18 21  2  0
 10 17  1  0
M  END

> <chembl_id>
CHEMBL280859

> <chembl_pref_name>
None

$$$$

     RDKit          2D

 13 11  0  0  0  0  0  0  0  0999 V2000
    4.9542   -3.7125    0.0000 Br  0  0  0  0  0  0  0  0  0  0  0  0
    5.9625   -1.2125    0.0000 C   0  0  0  0  0  0  0  0  0  0  0  0
    9.4792   -1.9417    0.0000 C   0  0  0  0  0  0  0  0  0  0  0  0
    3.8375   -1.5917    0.0000 N   0  0  0  0  0  0  0  0  0  0  0  0
    5.2417   -1.6167    0.0000 C   0  0  0  0  0  0  0  0  0  0  0  0
    5.9625   -0.3875    0.0000 O   0  0  0  0  0  0  0  0  0  0  0  0
    9.4042   -2.7667    0.0000 O   0  0  0  0  0  0  0  0  0  0  0  0
    6.6375   -1.6875    0.0000 N   0  0  0  0  0  0  0  0  0  0  0  0
    8.8042   -1.4667    0.0000 S   0  0  0  0  0  0  0  0  0  0  0  0
    4.5292   -1.2000    0.0000 C   0  0  0  0  0  0  0  0  0  0  0  0
   10.2292   -1.6000    0.0000 C   0  0  0  0  0  0  0  0  0  0  0  0
    7.3875   -1.3417    0.0000 C   0  0  0  0  0  0  0  0  0  0  0  0
    8.0625   -1.8167    0.0000 C   0  0  0  0  0  0  0  0  0  0  0  0
  3  9  1  0
  4 10  1  0
  5  2  1  0
  6  2  2  0
  7  3  2  0
  8  2  1  0
  9 13  1  0
 10  5  1  0
 11  3  1  0
 12  8  1  0
 13 12  1  0
M  END

> <chembl_id>
CHEMBL421294

> <chembl_pref_name>
None

$$$$

     RDKit          2D

 23 22  0  0  0  0  0  0  0  0999 V2000
   -8.7214    3.8009    0.0000 N   0  0  0  0  0  0  0  0  0  0  0  0
   -8.0070    4.2134    0.0000 C   0  0  0  0  0  0  0  0  0  0  0  0
   -7.2925    3.8009    0.0000 C   0  0  0  0  0  0  0  0  0  0  0  0
   -6.5780    4.2134    0.0000 N   0  0  0  0  0  0  0  0  0  0  0  0
   -5.8635    3.8009    0.0000 C   0  0  0  0  0  0  0  0  0  0  0  0
   -5.1491    4.2134    0.0000 C   0  0  0  0  0  0  0  0  0  0  0  0
   -4.4346    3.8009    0.0000 S   0  0  0  0  0  0  0  0  0  0  0  0
   -9.4359    4.2134    0.0000 C   0  0  0  0  0  0  0  0  0  0  0  0
  -10.1504    3.8009    0.0000 O   0  0  0  0  0  0  0  0  0  0  0  0
   -9.4359    5.0384    0.0000 O   0  0  0  0  0  0  0  0  0  0  0  0
  -10.1504    5.4509    0.0000 C   0  0  0  0  0  0  0  0  0  0  0  0
  -10.1504    6.2759    0.0000 C   0  0  0  0  0  0  0  0  0  0  0  0
  -10.8648    5.0384    0.0000 C   0  0  0  0  0  0  0  0  0  0  0  0
  -10.8648    5.8634    0.0000 C   0  0  0  0  0  0  0  0  0  0  0  0
   -5.1491    5.0384    0.0000 O   0  0  0  0  0  0  0  0  0  0  0  0
   -4.4346    2.9759    0.0000 C   0  0  0  0  0  0  0  0  0  0  0  0
   -3.7201    2.5634    0.0000 C   0  0  0  0  0  0  0  0  0  0  0  0
   -3.7201    1.7384    0.0000 N   0  0  0  0  0  0  0  0  0  0  0  0
   -3.0057    1.3259    0.0000 C   0  0  0  0  0  0  0  0  0  0  0  0
   -3.0057    0.5009    0.0000 C   0  0  0  0  0  0  0  0  0  0  0  0
   -2.2912    1.7384    0.0000 O   0  0  0  0  0  0  0  0  0  0  0  0
   -7.2925    2.9759    0.0000 O   0  0  0  0  0  0  0  0  0  0  0  0
   -8.0070    5.0384    0.0000 C   0  0  0  0  0  0  0  0  0  0  0  0
  1  2  1  0
  2  3  1  0
  3  4  1  0
  4  5  1  0
  5  6  1  0
  6  7  1  0
  1  8  1  0
  8  9  2  0
  8 10  1  0
 10 11  1  0
 11 12  1  0
 11 13  1  0
 11 14  1  0
  6 15  2  0
  7 16  1  0
 16 17  1  0
 17 18  1  0
 18 19  1  0
 19 20  1  0
 19 21  2  0
  3 22  2  0
  2 23  1  1
M  END

> <chembl_id>
CHEMBL452637

> <chembl_pref_name>
None

$$$$

     RDKit          2D

 19 18  0  0  0  0  0  0  0  0999 V2000
   -5.0973    3.1821    0.0000 C   0  0  0  0  0  0  0  0  0  0  0  0
   -5.0973    2.3571    0.0000 O   0  0  0  0  0  0  0  0  0  0  0  0
   -4.3829    1.9446    0.0000 C   0  0  0  0  0  0  0  0  0  0  0  0
   -4.3829    1.1196    0.0000 O   0  0  0  0  0  0  0  0  0  0  0  0
   -3.6684    2.3571    0.0000 N   0  0  0  0  0  0  0  0  0  0  0  0
   -2.9539    1.9446    0.0000 C   0  0  0  0  0  0  0  0  0  0  0  0
   -2.2394    2.3571    0.0000 C   0  0  0  0  0  0  0  0  0  0  0  0
   -2.9539    1.1196    0.0000 C   0  0  0  0  0  0  0  0  0  0  0  0
   -1.5250    1.9446    0.0000 S   0  0  0  0  0  0  0  0  0  0  0  0
   -2.2394    3.1821    0.0000 O   0  0  0  0  0  0  0  0  0  0  0  0
   -1.5250    1.1196    0.0000 C   0  0  0  0  0  0  0  0  0  0  0  0
   -0.8105    0.7071    0.0000 C   0  0  0  0  0  0  0  0  0  0  0  0
   -0.8105   -0.1179    0.0000 N   0  0  0  0  0  0  0  0  0  0  0  0
   -0.0960   -0.5304    0.0000 C   0  0  0  0  0  0  0  0  0  0  0  0
   -0.0960   -1.3554    0.0000 C   0  0  0  0  0  0  0  0  0  0  0  0
    0.6184   -0.1179    0.0000 O   0  0  0  0  0  0  0  0  0  0  0  0
   -5.8118    3.5946    0.0000 C   0  0  0  0  0  0  0  0  0  0  0  0
   -4.3829    3.5946    0.0000 C   0  0  0  0  0  0  0  0  0  0  0  0
   -5.0973    4.0071    0.0000 C   0  0  0  0  0  0  0  0  0  0  0  0
  1  2  1  0
  2  3  1  0
  3  4  2  0
  3  5  1  0
  5  6  1  0
  6  7  1  0
  6  8  1  1
  7  9  1  0
  7 10  2  0
  9 11  1  0
 11 12  1  0
 12 13  1  0
 13 14  1  0
 14 15  1  0
 14 16  2  0
  1 17  1  0
  1 18  1  0
  1 19  1  0
M  END

> <chembl_id>
CHEMBL490963

> <chembl_pref_name>
None

$$$$

     RDKit          2D

 19 18  0  0  1  0  0  0  0  0999 V2000
    1.1417   -2.9292    0.0000 N   0  0  0  0  0  0  0  0  0  0  0  0
   -1.5958    0.3333    0.0000 C   0  0  0  0  0  0  0  0  0  0  0  0
   -0.8833   -0.0792    0.0000 C   0  0  0  0  0  0  0  0  0  0  0  0
   -2.3083   -0.0792    0.0000 N   0  0  0  0  0  0  0  0  0  0  0  0
    0.5625   -3.5125    0.0000 O   0  0  0  0  0  0  0  0  0  0  0  0
   -3.0250    0.3250    0.0000 C   0  0  0  0  0  0  0  0  0  0  0  0
    1.9417   -3.1417    0.0000 O   0  0  0  0  0  0  0  0  0  0  0  0
   -0.8833    2.3958    0.0000 C   0  0  0  0  0  0  0  0  0  0  0  0
   -0.8833    1.5708    0.0000 S   0  0  0  0  0  0  0  0  0  0  0  0
   -1.5958    1.1625    0.0000 C   0  0  0  0  0  0  0  0  0  0  0  0
   -0.1625    0.3250    0.0000 O   0  0  0  0  0  0  0  0  0  0  0  0
    0.9292   -2.1292    0.0000 O   0  0  0  0  0  0  0  0  0  0  0  0
   -3.7375   -0.0917    0.0000 O   0  0  0  0  0  0  0  0  0  0  0  0
   -1.5958    2.8125    0.0000 O   0  0  0  0  0  0  0  0  0  0  0  0
   -0.8833   -0.9125    0.0000 N   0  0  0  0  0  0  0  0  0  0  0  0
    0.1292   -1.9167    0.0000 C   0  0  0  0  0  0  0  0  0  0  0  0
   -0.0833   -1.1167    0.0000 C   0  0  0  0  0  0  0  0  0  0  0  0
   -3.0333    1.1500    0.0000 C   0  0  0  0  0  0  0  0  0  0  0  0
   -0.1708    2.8083    0.0000 C   0  0  0  0  0  0  0  0  0  0  0  0
  2  3  1  0
  3 15  1  0
  4  2  1  0
  5  1  1  0
  6  4  1  0
  7  1  2  0
  8  9  1  0
  9 10  1  0
  2 10  1  1
 11  3  2  0
 12  1  1  0
 13  6  2  0
 14  8  2  0
 15 17  1  0
 16 12  1  0
 17 16  1  0
 18  6  1  0
 19  8  1  0
M  CHG  2   1   1   5  -1
M  END

> <chembl_id>
CHEMBL286133

> <chembl_pref_name>
None

$$$$

     RDKit          2D

 19 20  0  0  0  0  0  0  0  0999 V2000
    2.2765   -2.7753    0.0000 S   0  0  0  0  0  0  0  0  0  0  0  0
    2.8311   -1.0683    0.0000 O   0  0  0  0  0  0  0  0  0  0  0  0
   -0.0730   -1.0683    0.0000 O   0  0  0  0  0  0  0  0  0  0  0  0
    2.4258   -4.1964    0.0000 O   0  0  0  0  0  0  0  0  0  0  0  0
    1.3790   -0.8383    0.0000 N   0  0  0  0  0  0  0  0  0  0  0  0
    2.0465   -1.3232    0.0000 C   0  0  0  0  0  0  0  0  0  0  0  0
    1.3790   -0.0133    0.0000 C   0  0  0  0  0  0  0  0  0  0  0  0
    0.7116   -1.3232    0.0000 C   0  0  0  0  0  0  0  0  0  0  0  0
    1.7915   -2.1079    0.0000 C   0  0  0  0  0  0  0  0  0  0  0  0
    0.9665   -2.1079    0.0000 C   0  0  0  0  0  0  0  0  0  0  0  0
    0.6646    0.3992    0.0000 C   0  0  0  0  0  0  0  0  0  0  0  0
    2.0935    0.3992    0.0000 C   0  0  0  0  0  0  0  0  0  0  0  0
    0.6646    1.2242    0.0000 C   0  0  0  0  0  0  0  0  0  0  0  0
    2.0935    1.2242    0.0000 C   0  0  0  0  0  0  0  0  0  0  0  0
    1.9409   -3.5290    0.0000 C   0  0  0  0  0  0  0  0  0  0  0  0
    1.3790    1.6367    0.0000 C   0  0  0  0  0  0  0  0  0  0  0  0
   -0.0499   -0.0133    0.0000 C   0  0  0  0  0  0  0  0  0  0  0  0
    2.8080   -0.0133    0.0000 C   0  0  0  0  0  0  0  0  0  0  0  0
    1.1204   -3.6152    0.0000 C   0  0  0  0  0  0  0  0  0  0  0  0
  1  9  1  0
  1 15  1  0
  2  6  2  0
  3  8  2  0
  4 15  2  0
  5  6  1  0
  5  7  1  0
  5  8  1  0
  6  9  1  0
  7 11  1  0
  7 12  2  0
  8 10  1  0
  9 10  1  0
 11 13  2  0
 11 17  1  0
 12 14  1  0
 12 18  1  0
 13 16  1  0
 14 16  2  0
 15 19  1  0
M  END

> <chembl_id>
CHEMBL1544514

> <chembl_pref_name>
None

$$$$

     RDKit          2D

 19 20  0  0  0  0  0  0  0  0999 V2000
    6.5193  -27.6910    0.0000 C   0  0  0  0  0  0  0  0  0  0  0  0
    5.8500  -27.2043    0.0000 N   0  0  0  0  0  0  0  0  0  0  0  0
    5.1850  -27.6910    0.0000 C   0  0  0  0  0  0  0  0  0  0  0  0
    6.2625  -28.4751    0.0000 C   0  0  0  0  0  0  0  0  0  0  0  0
    5.4375  -28.4751    0.0000 C   0  0  0  0  0  0  0  0  0  0  0  0
    5.1825  -29.2598    0.0000 C   0  0  0  0  0  0  0  0  0  0  0  0
    5.8500  -29.7448    0.0000 C   0  0  0  0  0  0  0  0  0  0  0  0
    6.5173  -29.2598    0.0000 C   0  0  0  0  0  0  0  0  0  0  0  0
    4.6083  -28.4710    0.0000 H   0  0  0  0  0  0  0  0  0  0  0  0
    7.0834  -28.4751    0.0000 S   0  0  0  0  0  0  0  0  0  0  0  0
    7.4959  -29.1896    0.0000 C   0  0  0  0  0  0  0  0  0  0  0  0
    8.3209  -29.1895    0.0000 C   0  0  0  0  0  0  0  0  0  0  0  0
    7.0834  -29.9041    0.0000 O   0  0  0  0  0  0  0  0  0  0  0  0
    7.3043  -27.4372    0.0000 O   0  0  0  0  0  0  0  0  0  0  0  0
    4.4002  -27.4364    0.0000 O   0  0  0  0  0  0  0  0  0  0  0  0
    4.3978  -29.5147    0.0000 S   0  0  0  0  0  0  0  0  0  0  0  0
    3.7848  -28.9627    0.0000 C   0  0  0  0  0  0  0  0  0  0  0  0
    3.0002  -29.2176    0.0000 C   0  0  0  0  0  0  0  0  0  0  0  0
    3.9564  -28.1557    0.0000 O   0  0  0  0  0  0  0  0  0  0  0  0
  4  1  1  0
  1  2  1  0
  2  3  1  0
  3  5  1  0
  4  5  1  0
  5  6  1  0
  6  7  1  0
  7  8  1  0
  8  4  1  0
  5  9  1  6
  4 10  1  6
 10 11  1  0
 11 12  1  0
 11 13  2  0
  1 14  2  0
  3 15  2  0
  6 16  1  0
 16 17  1  0
 17 18  1  0
 17 19  2  0
M  END

> <chembl_id>
CHEMBL4102795

> <chembl_pref_name>
None

$$$$

     RDKit          2D

 65 69  0  0  0  0  0  0  0  0999 V2000
   15.3035  -21.5183    0.0000 C   0  0  0  0  0  0  0  0  0  0  0  0
   16.0174  -21.9318    0.0000 C   0  0  0  0  0  0  0  0  0  0  0  0
   15.3046  -20.6933    0.0000 O   0  0  0  0  0  0  0  0  0  0  0  0
   16.0164  -22.7568    0.0000 O   0  0  0  0  0  0  0  0  0  0  0  0
   16.7325  -21.5202    0.0000 C   0  0  0  0  0  0  0  0  0  0  0  0
   17.4465  -21.9336    0.0000 C   0  0  0  0  0  0  0  0  0  0  0  0
   17.3129  -20.9297    0.0000 C   0  0  0  0  0  0  0  0  0  0  0  0
   16.1421  -20.9297    0.0000 C   0  0  0  0  0  0  0  0  0  0  0  0
   18.1615  -21.5220    0.0000 O   0  0  0  0  0  0  0  0  0  0  0  0
   18.8754  -21.9354    0.0000 P   0  0  0  0  0  0  0  0  0  0  0  0
   19.5904  -21.5238    0.0000 O   0  0  0  0  0  0  0  0  0  0  0  0
   18.4547  -22.6464    0.0000 O   0  0  0  0  0  0  0  0  0  0  0  0
   19.4546  -22.5172    0.0000 O   0  0  0  0  0  0  0  0  0  0  0  0
   20.3044  -21.9372    0.0000 P   0  0  0  0  0  0  0  0  0  0  0  0
   20.0838  -22.7297    0.0000 O   0  0  0  0  0  0  0  0  0  0  0  0
   20.7089  -22.6464    0.0000 O   0  0  0  0  0  0  0  0  0  0  0  0
   21.0130  -21.5172    0.0000 O   0  0  0  0  0  0  0  0  0  0  0  0
   21.7322  -21.9216    0.0000 C   0  0  0  0  0  0  0  0  0  0  0  0
   22.3816  -21.4124    0.0000 C   0  0  0  0  0  0  0  0  0  0  0  0
   23.1710  -21.6372    0.0000 C   0  0  0  0  0  0  0  0  0  0  0  0
   23.6314  -20.9526    0.0000 C   0  0  0  0  0  0  0  0  0  0  0  0
   23.1225  -20.3031    0.0000 C   0  0  0  0  0  0  0  0  0  0  0  0
   22.3477  -20.5865    0.0000 O   0  0  0  0  0  0  0  0  0  0  0  0
   23.4544  -22.4120    0.0000 O   0  0  0  0  0  0  0  0  0  0  0  0
   24.4558  -20.9226    0.0000 O   0  0  0  0  0  0  0  0  0  0  0  0
   23.3629  -19.5148    0.0000 N   0  0  0  0  0  0  0  0  0  0  0  0
   23.3342  -18.1814    0.0000 N   0  0  0  0  0  0  0  0  0  0  0  0
   22.8650  -18.8612    0.0000 C   0  0  0  0  0  0  0  0  0  0  0  0
   24.1255  -18.4187    0.0000 C   0  0  0  0  0  0  0  0  0  0  0  0
   24.1397  -19.2446    0.0000 C   0  0  0  0  0  0  0  0  0  0  0  0
   24.8609  -19.6433    0.0000 N   0  0  0  0  0  0  0  0  0  0  0  0
   25.5682  -19.2175    0.0000 N   0  0  0  0  0  0  0  0  0  0  0  0
   25.5499  -18.3886    0.0000 C   0  0  0  0  0  0  0  0  0  0  0  0
   24.8282  -17.9936    0.0000 C   0  0  0  0  0  0  0  0  0  0  0  0
   24.8105  -17.1688    0.0000 N   0  0  0  0  0  0  0  0  0  0  0  0
   22.9251  -23.0448    0.0000 P   0  0  0  0  0  0  0  0  0  0  0  0
   23.3298  -23.7548    0.0000 O   0  0  0  0  0  0  0  0  0  0  0  0
   22.3339  -22.4547    0.0000 O   0  0  0  0  0  0  0  0  0  0  0  0
   22.3339  -23.6256    0.0000 O   0  0  0  0  0  0  0  0  0  0  0  0
    9.5913  -21.5105    0.0000 S   0  0  0  0  0  0  0  0  0  0  0  0
   10.3053  -21.9239    0.0000 C   0  0  0  0  0  0  0  0  0  0  0  0
   11.0203  -21.5124    0.0000 C   0  0  0  0  0  0  0  0  0  0  0  0
   11.7343  -21.9258    0.0000 N   0  0  0  0  0  0  0  0  0  0  0  0
   12.4493  -21.5142    0.0000 C   0  0  0  0  0  0  0  0  0  0  0  0
   13.1632  -21.9276    0.0000 C   0  0  0  0  0  0  0  0  0  0  0  0
   12.4504  -20.6892    0.0000 O   0  0  0  0  0  0  0  0  0  0  0  0
   13.8782  -21.5160    0.0000 C   0  0  0  0  0  0  0  0  0  0  0  0
   14.5922  -21.9294    0.0000 N   0  0  0  0  0  0  0  0  0  0  0  0
    8.8752  -21.9214    0.0000 C   0  0  0  0  0  0  0  0  0  0  0  0
    9.6711  -22.9589    0.0000 C   0  0  0  0  0  0  0  0  0  0  0  0
    8.8752  -22.7464    0.0000 C   0  0  0  0  0  0  0  0  0  0  0  0
    9.0892  -23.5419    0.0000 O   0  0  0  0  0  0  0  0  0  0  0  0
    4.5920  -22.7608    0.0000 C   0  0  0  0  0  0  0  0  0  0  0  0
    5.3078  -23.1710    0.0000 C   0  0  0  0  0  0  0  0  0  0  0  0
    6.0209  -22.7563    0.0000 C   0  0  0  0  0  0  0  0  0  0  0  0
    6.7367  -23.1665    0.0000 C   0  0  0  0  0  0  0  0  0  0  0  0
    7.4499  -22.7516    0.0000 C   0  0  0  0  0  0  0  0  0  0  0  0
    8.1658  -23.1619    0.0000 C   0  0  0  0  0  0  0  0  0  0  0  0
    4.5924  -21.9366    0.0000 C   0  0  0  0  0  0  0  0  0  0  0  0
    3.8774  -21.5264    0.0000 C   0  0  0  0  0  0  0  0  0  0  0  0
    3.1632  -21.9412    0.0000 C   0  0  0  0  0  0  0  0  0  0  0  0
    3.1686  -22.7705    0.0000 C   0  0  0  0  0  0  0  0  0  0  0  0
    3.8841  -23.1770    0.0000 C   0  0  0  0  0  0  0  0  0  0  0  0
    2.4469  -21.5320    0.0000 Cl  0  0  0  0  0  0  0  0  0  0  0  0
    8.1624  -21.5086    0.0000 O   0  0  0  0  0  0  0  0  0  0  0  0
  1  2  1  0
  1  3  2  0
  2  4  1  1
  2  5  1  0
  5  6  1  0
  5  7  1  0
  5  8  1  0
  6  9  1  0
  9 10  1  0
 10 11  1  0
 10 12  2  0
 10 13  1  0
 11 14  1  0
 14 15  2  0
 14 16  1  0
 14 17  1  0
 17 18  1  0
 19 18  1  1
 19 20  1  0
 20 21  1  0
 21 22  1  0
 22 23  1  0
 23 19  1  0
 20 24  1  6
 21 25  1  6
 26 30  1  0
 29 27  1  0
 27 28  2  0
 28 26  1  0
 22 26  1  1
 29 30  2  0
 30 31  1  0
 31 32  2  0
 32 33  1  0
 33 34  2  0
 34 29  1  0
 34 35  1  0
 24 36  1  0
 36 37  1  0
 36 38  2  0
 36 39  1  0
 49 40  1  0
 40 41  1  0
 41 42  1  0
 42 43  1  0
 43 44  1  0
 44 45  1  0
 44 46  2  0
 45 47  1  0
 47 48  1  0
 48  1  1  0
 51 50  1  0
 52 51  1  0
 50 52  1  0
 53 54  1  0
 54 55  1  0
 55 56  1  0
 56 57  1  0
 57 58  1  0
 51 58  1  0
 51 49  1  0
 53 59  2  0
 59 60  1  0
 60 61  2  0
 61 62  1  0
 62 63  2  0
 63 53  1  0
 61 64  1  0
 49 65  2  0
M  END

> <chembl_id>
CHEMBL2216796

> <chembl_pref_name>
None

$$$$

     RDKit          2D

 15 16  0  0  0  0  0  0  0  0999 V2000
   44.6138   -6.9825    0.0000 C   0  0  0  0  0  0  0  0  0  0  0  0
   43.9508   -6.5004    0.0000 N   0  0  0  0  0  0  0  0  0  0  0  0
   43.2921   -6.9825    0.0000 C   0  0  0  0  0  0  0  0  0  0  0  0
   44.3594   -7.7592    0.0000 C   0  0  0  0  0  0  0  0  0  0  0  0
   43.5422   -7.7592    0.0000 C   0  0  0  0  0  0  0  0  0  0  0  0
   43.2897   -8.5364    0.0000 C   0  0  0  0  0  0  0  0  0  0  0  0
   43.9508   -9.0168    0.0000 C   0  0  0  0  0  0  0  0  0  0  0  0
   44.6119   -8.5364    0.0000 C   0  0  0  0  0  0  0  0  0  0  0  0
   42.7209   -7.7551    0.0000 H   0  0  0  0  0  0  0  0  0  0  0  0
   45.1725   -7.7592    0.0000 S   0  0  0  0  0  0  0  0  0  0  0  0
   45.5811   -8.4669    0.0000 C   0  0  0  0  0  0  0  0  0  0  0  0
   46.3983   -8.4668    0.0000 C   0  0  0  0  0  0  0  0  0  0  0  0
   45.1726   -9.1746    0.0000 O   0  0  0  0  0  0  0  0  0  0  0  0
   45.3913   -6.7311    0.0000 O   0  0  0  0  0  0  0  0  0  0  0  0
   42.5148   -6.7303    0.0000 O   0  0  0  0  0  0  0  0  0  0  0  0
  4  1  1  0
  1  2  1  0
  2  3  1  0
  3  5  1  0
  4  5  1  0
  5  6  1  0
  6  7  1  0
  7  8  1  0
  8  4  1  0
  5  9  1  6
  4 10  1  6
 10 11  1  0
 11 12  1  0
 11 13  2  0
  1 14  2  0
  3 15  2  0
M  END

> <chembl_id>
CHEMBL4082996

> <chembl_pref_name>
None

$$$$

     RDKit          2D

 66 65  0  0  1  0  0  0  0  0999 V2000
    5.3792   -0.3792    0.0000 C   0  0  0  0  0  0  0  0  0  0  0  0
    3.9542   -0.3792    0.0000 N   0  0  0  0  0  0  0  0  0  0  0  0
   10.3792   -0.8000    0.0000 N   0  0  0  0  0  0  0  0  0  0  0  0
    3.2500   -0.7917    0.0000 C   0  0  0  0  0  0  0  0  0  0  0  0
    9.6667   -0.3875    0.0000 C   0  0  0  0  0  0  0  0  0  0  0  0
    7.5250   -0.8000    0.0000 C   0  0  0  0  0  0  0  0  0  0  0  0
    1.1042   -0.4000    0.0000 C   0  0  0  0  0  0  0  0  0  0  0  0
   -1.0375   -0.8167    0.0000 C   0  0  0  0  0  0  0  0  0  0  0  0
    6.0917   -0.7917    0.0000 N   0  0  0  0  0  0  0  0  0  0  0  0
    1.8167   -0.8042    0.0000 N   0  0  0  0  0  0  0  0  0  0  0  0
    4.6667   -0.7917    0.0000 C   0  0  0  0  0  0  0  0  0  0  0  0
   -0.3250   -0.4042    0.0000 N   0  0  0  0  0  0  0  0  0  0  0  0
    6.8125   -0.3792    0.0000 C   0  0  0  0  0  0  0  0  0  0  0  0
    8.2417   -0.3875    0.0000 N   0  0  0  0  0  0  0  0  0  0  0  0
   11.0917   -0.3792    0.0000 C   0  0  0  0  0  0  0  0  0  0  0  0
    6.8167    0.4458    0.0000 C   0  0  0  0  0  0  0  0  0  0  0  0
   -3.1833   -0.4167    0.0000 C   0  0  0  0  0  0  0  0  0  0  0  0
    2.5292   -0.3917    0.0000 C   0  0  0  0  0  0  0  0  0  0  0  0
    0.3917   -0.8125    0.0000 C   0  0  0  0  0  0  0  0  0  0  0  0
   11.8042   -0.7875    0.0000 C   0  0  0  0  0  0  0  0  0  0  0  0
   -2.4708   -0.8292    0.0000 N   0  0  0  0  0  0  0  0  0  0  0  0
    7.5292    0.8500    0.0000 C   0  0  0  0  0  0  0  0  0  0  0  0
   -1.7583   -0.4125    0.0000 C   0  0  0  0  0  0  0  0  0  0  0  0
   -3.8958   -0.8375    0.0000 C   0  0  0  0  0  0  0  0  0  0  0  0
    8.9542   -0.8000    0.0000 C   0  0  0  0  0  0  0  0  0  0  0  0
   -1.0500    1.6583    0.0000 C   0  0  0  0  0  0  0  0  0  0  0  0
   15.3750   -0.3417    0.0000 C   0  0  0  0  0  0  0  0  0  0  0  0
    5.3875    0.4458    0.0000 O   0  0  0  0  0  0  0  0  0  0  0  0
    3.2542   -1.6167    0.0000 O   0  0  0  0  0  0  0  0  0  0  0  0
    9.6667    0.4375    0.0000 O   0  0  0  0  0  0  0  0  0  0  0  0
    7.5250   -1.6250    0.0000 O   0  0  0  0  0  0  0  0  0  0  0  0
    1.1000    0.4250    0.0000 O   0  0  0  0  0  0  0  0  0  0  0  0
   -1.0333   -1.6417    0.0000 O   0  0  0  0  0  0  0  0  0  0  0  0
   -3.1875    0.4083    0.0000 O   0  0  0  0  0  0  0  0  0  0  0  0
   11.8125   -1.6125    0.0000 O   0  0  0  0  0  0  0  0  0  0  0  0
    0.3917   -1.6375    0.0000 C   0  0  0  0  0  0  0  0  0  0  0  0
    2.5250    0.4333    0.0000 C   0  0  0  0  0  0  0  0  0  0  0  0
    8.2417    0.4375    0.0000 O   0  0  0  0  0  0  0  0  0  0  0  0
   -1.7708    2.0625    0.0000 O   0  0  0  0  0  0  0  0  0  0  0  0
   15.3667    0.4833    0.0000 O   0  0  0  0  0  0  0  0  0  0  0  0
   -1.7583    0.4125    0.0000 C   0  0  0  0  0  0  0  0  0  0  0  0
   12.5167   -0.3667    0.0000 S   0  0  0  0  0  0  0  0  0  0  0  0
   14.6667   -0.7625    0.0000 N   0  0  0  0  0  0  0  0  0  0  0  0
    4.6667   -1.6167    0.0000 C   0  0  0  0  0  0  0  0  0  0  0  0
   -1.0458    0.8333    0.0000 C   0  0  0  0  0  0  0  0  0  0  0  0
   11.0792    0.4458    0.0000 C   0  0  0  0  0  0  0  0  0  0  0  0
   -0.3375    2.0708    0.0000 N   0  0  0  0  0  0  0  0  0  0  0  0
    7.5292    1.6750    0.0000 O   0  0  0  0  0  0  0  0  0  0  0  0
   -4.6083   -0.4292    0.0000 C   0  0  0  0  0  0  0  0  0  0  0  0
   -4.6125    0.3958    0.0000 O   0  0  0  0  0  0  0  0  0  0  0  0
    3.2375    0.8583    0.0000 C   0  0  0  0  0  0  0  0  0  0  0  0
    1.1125   -2.0500    0.0000 C   0  0  0  0  0  0  0  0  0  0  0  0
   16.0917   -0.7500    0.0000 C   0  0  0  0  0  0  0  0  0  0  0  0
    8.9500   -1.6250    0.0000 C   0  0  0  0  0  0  0  0  0  0  0  0
   13.2375   -0.7750    0.0000 C   0  0  0  0  0  0  0  0  0  0  0  0
   13.9417   -0.3542    0.0000 C   0  0  0  0  0  0  0  0  0  0  0  0
   11.7917    0.8625    0.0000 C   0  0  0  0  0  0  0  0  0  0  0  0
    5.3792   -2.0292    0.0000 C   0  0  0  0  0  0  0  0  0  0  0  0
    3.9500   -2.0250    0.0000 C   0  0  0  0  0  0  0  0  0  0  0  0
   10.3625    0.8500    0.0000 C   0  0  0  0  0  0  0  0  0  0  0  0
   -5.3208   -0.8417    0.0000 C   0  0  0  0  0  0  0  0  0  0  0  0
    1.1167   -2.8750    0.0000 C   0  0  0  0  0  0  0  0  0  0  0  0
    3.2292    1.6833    0.0000 C   0  0  0  0  0  0  0  0  0  0  0  0
    3.9542    0.4458    0.0000 C   0  0  0  0  0  0  0  0  0  0  0  0
    1.8250   -1.6292    0.0000 C   0  0  0  0  0  0  0  0  0  0  0  0
   11.7875    1.6875    0.0000 C   0  0  0  0  0  0  0  0  0  0  0  0
 11  2  1  6
  3  5  1  0
  4  2  1  0
  5 25  1  0
  6 13  1  0
  7 10  1  0
  8 12  1  0
  9  1  1  0
 18 10  1  6
 11  1  1  0
 19 12  1  6
 13  9  1  1
 14  6  1  0
 15  3  1  1
 13 16  1  0
 17 21  1  0
 18  4  1  0
 19  7  1  0
 20 15  1  0
 23 21  1  1
 22 16  1  0
 23  8  1  0
 24 17  1  0
 25 14  1  0
 26 45  1  0
 27 43  1  0
 28  1  2  0
 29  4  2  0
 30  5  2  0
 31  6  2  0
 32  7  2  0
 33  8  2  0
 34 17  2  0
 35 20  2  0
 19 36  1  0
 18 37  1  0
 38 22  2  0
 39 26  2  0
 40 27  2  0
 23 41  1  0
 42 20  1  0
 43 56  1  0
 11 44  1  0
 45 41  1  0
 15 46  1  0
 47 26  1  0
 48 22  1  0
 49 24  1  0
 49 50  1  1
 51 37  1  0
 52 36  1  0
 53 27  1  0
 25 54  1  1
 55 42  1  0
 56 55  1  0
 57 46  1  0
 58 44  1  0
 59 44  1  0
 46 60  1  1
 61 49  1  0
 62 52  1  0
 63 51  1  0
 64 51  1  0
 65 52  1  0
 66 57  1  0
M  END

> <chembl_id>
CHEMBL2371861

> <chembl_pref_name>
None

$$$$

     RDKit          2D

 40 41  0  0  1  0  0  0  0  0999 V2000
   -2.3250    0.6083    0.0000 N   0  0  0  0  0  0  0  0  0  0  0  0
   -0.9000    2.4833    0.0000 N   0  0  0  0  0  0  0  0  0  0  0  0
    1.3792    1.8708    0.0000 N   0  0  0  0  0  0  0  0  0  0  0  0
   -1.6083    2.0708    0.0000 C   0  0  0  0  0  0  0  0  0  0  0  0
    1.6917   -0.4667    0.0000 N   0  0  0  0  0  0  0  0  0  0  0  0
   -2.2208   -0.2042    0.0000 C   0  0  0  0  0  0  0  0  0  0  0  0
    0.7292    2.3708    0.0000 C   0  0  0  0  0  0  0  0  0  0  0  0
    1.9000    0.3333    0.0000 C   0  0  0  0  0  0  0  0  0  0  0  0
   -2.1125    1.4083    0.0000 C   0  0  0  0  0  0  0  0  0  0  0  0
   -0.0708    2.5833    0.0000 C   0  0  0  0  0  0  0  0  0  0  0  0
   -1.8083   -0.9292    0.0000 C   0  0  0  0  0  0  0  0  0  0  0  0
    0.4667   -1.5292    0.0000 C   0  0  0  0  0  0  0  0  0  0  0  0
    1.7917    1.1583    0.0000 C   0  0  0  0  0  0  0  0  0  0  0  0
    1.1875   -1.1167    0.0000 C   0  0  0  0  0  0  0  0  0  0  0  0
   -0.3500   -1.6417    0.0000 S   0  0  0  0  0  0  0  0  0  0  0  0
   -2.4250   -1.4667    0.0000 N   0  0  0  0  0  0  0  0  0  0  0  0
   -1.1458   -1.4292    0.0000 C   0  0  0  0  0  0  0  0  0  0  0  0
   -3.2083   -1.2042    0.0000 C   0  0  0  0  0  0  0  0  0  0  0  0
    1.0917    3.1083    0.0000 O   0  0  0  0  0  0  0  0  0  0  0  0
   -2.6833   -0.3917    0.0000 O   0  0  0  0  0  0  0  0  0  0  0  0
   -2.1500    2.6958    0.0000 O   0  0  0  0  0  0  0  0  0  0  0  0
    2.6125    0.5708    0.0000 O   0  0  0  0  0  0  0  0  0  0  0  0
    1.7292   -1.7417    0.0000 C   0  0  0  0  0  0  0  0  0  0  0  0
    0.6167   -2.0292    0.0000 O   0  0  0  0  0  0  0  0  0  0  0  0
    2.5792    1.4208    0.0000 C   0  0  0  0  0  0  0  0  0  0  0  0
   -3.8250   -1.7542    0.0000 O   0  0  0  0  0  0  0  0  0  0  0  0
   -2.8500    1.7708    0.0000 C   0  0  0  0  0  0  0  0  0  0  0  0
   -0.0208    3.4083    0.0000 C   0  0  0  0  0  0  0  0  0  0  0  0
    1.4667   -2.5292    0.0000 C   0  0  0  0  0  0  0  0  0  0  0  0
    0.7250    3.7833    0.0000 O   0  0  0  0  0  0  0  0  0  0  0  0
   -2.9083    2.5958    0.0000 O   0  0  0  0  0  0  0  0  0  0  0  0
    3.2000    0.8708    0.0000 C   0  0  0  0  0  0  0  0  0  0  0  0
   -3.3708   -0.3917    0.0000 C   0  0  0  0  0  0  0  0  0  0  0  0
    0.6542   -2.6917    0.0000 C   0  0  0  0  0  0  0  0  0  0  0  0
    2.0042   -3.1542    0.0000 C   0  0  0  0  0  0  0  0  0  0  0  0
    3.0375    0.0625    0.0000 C   0  0  0  0  0  0  0  0  0  0  0  0
    3.9792    1.1333    0.0000 C   0  0  0  0  0  0  0  0  0  0  0  0
    1.7500   -3.9292    0.0000 C   0  0  0  0  0  0  0  0  0  0  0  0
    0.3917   -3.4667    0.0000 C   0  0  0  0  0  0  0  0  0  0  0  0
    0.9375   -4.0917    0.0000 C   0  0  0  0  0  0  0  0  0  0  0  0
  2  4  1  0
  3  7  1  0
  4  9  1  0
  5 14  1  0
  6  1  1  0
  7 10  1  0
  8 13  1  0
  9  1  1  0
 10  2  1  0
 11  6  1  0
 12 15  1  0
 13  3  1  0
 14 12  1  0
 15 17  1  0
 11 16  1  1
 11 17  1  0
 18 16  1  0
 19  7  2  0
 20  6  2  0
 21  4  2  0
 22  8  2  0
 14 23  1  1
 24 12  2  0
 13 25  1  6
 26 18  2  0
  9 27  1  6
 10 28  1  1
 29 23  1  0
 30 28  1  0
 31 27  1  0
 32 25  1  0
 33 18  1  0
 34 29  2  0
 35 29  1  0
 36 32  1  0
 37 32  1  0
 38 35  2  0
 39 34  1  0
 40 38  1  0
  5  8  1  0
 39 40  2  0
M  END

> <chembl_id>
CHEMBL369309

> <chembl_pref_name>
None

$$$$

     RDKit          2D

 11 10  0  0  0  0  0  0  0  0999 V2000
    3.7792   -9.5167    0.0000 C   0  0  0  0  0  0  0  0  0  0  0  0
    1.6875   -6.7667    0.0000 C   0  0  0  0  0  0  0  0  0  0  0  0
    3.7792  -10.3417    0.0000 O   0  0  0  0  0  0  0  0  0  0  0  0
    1.6875   -5.9625    0.0000 O   0  0  0  0  0  0  0  0  0  0  0  0
    3.0750   -9.1042    0.0000 N   0  0  0  0  0  0  0  0  0  0  0  0
    2.3542   -7.2417    0.0000 S   0  0  0  0  0  0  0  0  0  0  0  0
    0.9167   -7.8917    0.0000 N   0  0  0  0  0  0  0  0  0  0  0  0
    0.9250   -7.0292    0.0000 C   0  0  0  0  0  0  0  0  0  0  0  0
    4.5000   -9.1042    0.0000 C   0  0  0  0  0  0  0  0  0  0  0  0
    3.0792   -8.2792    0.0000 C   0  0  0  0  0  0  0  0  0  0  0  0
    2.2792   -8.0667    0.0000 C   0  0  0  0  0  0  0  0  0  0  0  0
  2  6  1  0
  3  1  2  0
  4  2  2  0
  5  1  1  0
  6 11  1  0
  7  8  1  0
  8  2  1  0
  9  1  1  0
 10  5  1  0
 11 10  1  0
M  END

> <chembl_id>
CHEMBL1193964

> <chembl_pref_name>
None

$$$$

     RDKit          2D

 57 59  0  0  0  0  0  0  0  0999 V2000
    5.4679  -34.4640    0.0000 C   0  0  0  0  0  0  0  0  0  0  0  0
    5.9194  -33.3522    0.0000 C   0  0  0  0  0  0  0  0  0  0  0  0
    4.9982  -32.1673    0.0000 C   0  0  0  0  0  0  0  0  0  0  0  0
    5.5629  -30.7768    0.0000 C   0  0  0  0  0  0  0  0  0  0  0  0
    4.6417  -29.5919    0.0000 C   0  0  0  0  0  0  0  0  0  0  0  0
    7.0500  -30.5741    0.0000 C   0  0  0  0  0  0  0  0  0  0  0  0
    7.9698  -31.7600    0.0000 C   0  0  0  0  0  0  0  0  0  0  0  0
    9.1588  -31.5979    0.0000 C   0  0  0  0  0  0  0  0  0  0  0  0
    3.4531  -29.7564    0.0000 O   0  0  0  0  0  0  0  0  0  0  0  0
    5.2064  -28.2014    0.0000 S   0  0  0  0  0  0  0  0  0  0  0  0
   -2.3155    0.7475    0.0000 N   0  0  0  0  0  0  0  0  0  0  0  0
   -2.3155   -0.7475    0.0000 C   0  0  0  0  0  0  0  0  0  0  0  0
   -1.0028   -1.5132    0.0000 N   0  0  0  0  0  0  0  0  0  0  0  0
    0.2917   -0.7475    0.0000 C   0  0  0  0  0  0  0  0  0  0  0  0
    0.2917    0.7475    0.0000 C   0  0  0  0  0  0  0  0  0  0  0  0
   -1.0028    1.5132    0.0000 C   0  0  0  0  0  0  0  0  0  0  0  0
   -0.9991    2.7132    0.0000 N   0  0  0  0  0  0  0  0  0  0  0  0
    1.7138    1.2033    0.0000 N   0  0  0  0  0  0  0  0  0  0  0  0
    2.5889    0.0182    0.0000 C   0  0  0  0  0  0  0  0  0  0  0  0
    1.7138   -1.2033    0.0000 N   0  0  0  0  0  0  0  0  0  0  0  0
    2.1852   -2.6281    0.0000 C   0  0  0  0  0  0  0  0  0  0  0  0
    3.5643   -3.1717    0.0000 C   0  0  0  0  0  0  0  0  0  0  0  0
    4.5805   -2.5334    0.0000 O   0  0  0  0  0  0  0  0  0  0  0  0
    3.4539   -4.6676    0.0000 C   0  0  0  0  0  0  0  0  0  0  0  0
    4.6000   -5.6327    0.0000 O   0  0  0  0  0  0  0  0  0  0  0  0
    6.0115   -5.1228    0.0000 P   0  0  0  0  0  0  0  0  0  0  0  0
    6.9294   -5.8958    0.0000 O   0  0  0  0  0  0  0  0  0  0  0  0
    6.2224   -3.9415    0.0000 O   0  0  0  0  0  0  0  0  0  0  0  0
    7.1399   -4.7145    0.0000 O   0  0  0  0  0  0  0  0  0  0  0  0
    1.9971   -5.0249    0.0000 C   0  0  0  0  0  0  0  0  0  0  0  0
    1.2071   -3.7498    0.0000 O   0  0  0  0  0  0  0  0  0  0  0  0
    1.4334   -6.4131    0.0000 C   0  0  0  0  0  0  0  0  0  0  0  0
    2.3546   -7.5980    0.0000 O   0  0  0  0  0  0  0  0  0  0  0  0
    1.7899   -8.9885    0.0000 P   0  0  0  0  0  0  0  0  0  0  0  0
    0.6012   -9.1530    0.0000 O   0  0  0  0  0  0  0  0  0  0  0  0
    1.3379  -10.1001    0.0000 O   0  0  0  0  0  0  0  0  0  0  0  0
    2.7111  -10.1734    0.0000 O   0  0  0  0  0  0  0  0  0  0  0  0
    2.1464  -11.5639    0.0000 P   0  0  0  0  0  0  0  0  0  0  0  0
    0.9577  -11.7285    0.0000 O   0  0  0  0  0  0  0  0  0  0  0  0
    1.6944  -12.6755    0.0000 O   0  0  0  0  0  0  0  0  0  0  0  0
    3.0675  -12.7488    0.0000 O   0  0  0  0  0  0  0  0  0  0  0  0
    3.4240  -15.3242    0.0000 C   0  0  0  0  0  0  0  0  0  0  0  0
    2.5029  -14.1394    0.0000 C   0  0  0  0  0  0  0  0  0  0  0  0
    4.6127  -15.1597    0.0000 C   0  0  0  0  0  0  0  0  0  0  0  0
    3.8760  -14.2126    0.0000 C   0  0  0  0  0  0  0  0  0  0  0  0
    2.8593  -16.7148    0.0000 C   0  0  0  0  0  0  0  0  0  0  0  0
    1.6707  -16.8793    0.0000 O   0  0  0  0  0  0  0  0  0  0  0  0
    3.7805  -17.8997    0.0000 C   0  0  0  0  0  0  0  0  0  0  0  0
    4.9692  -17.7351    0.0000 O   0  0  0  0  0  0  0  0  0  0  0  0
    3.2158  -19.2902    0.0000 N   0  0  0  0  0  0  0  0  0  0  0  0
    4.1370  -20.4751    0.0000 C   0  0  0  0  0  0  0  0  0  0  0  0
    3.5723  -21.8656    0.0000 C   0  0  0  0  0  0  0  0  0  0  0  0
    4.4935  -23.0505    0.0000 C   0  0  0  0  0  0  0  0  0  0  0  0
    5.6821  -22.8860    0.0000 O   0  0  0  0  0  0  0  0  0  0  0  0
    3.9288  -24.4411    0.0000 N   0  0  0  0  0  0  0  0  0  0  0  0
    4.8499  -25.6259    0.0000 C   0  0  0  0  0  0  0  0  0  0  0  0
    4.2853  -27.0165    0.0000 C   0  0  0  0  0  0  0  0  0  0  0  0
  4  5  1  0
  4  6  1  0
  7  8  1  0
  5  9  2  0
  6  7  1  0
  5 10  1  0
 12 11  2  0
 16 11  1  0
 12 13  1  0
 14 13  2  0
 14 15  1  0
 14 20  1  0
 15 16  2  0
 15 18  1  0
 16 17  1  0
 19 18  2  0
 19 20  1  0
 21 20  1  1
 21 22  1  0
 21 31  1  0
 22 23  1  6
 22 24  1  0
 24 25  1  6
 24 30  1  0
 25 26  1  0
 27 26  2  0
 28 26  1  0
 29 26  1  0
 30 31  1  0
 30 32  1  1
 32 33  1  0
 34 33  1  0
 35 34  2  0
 34 36  1  0
 37 34  1  0
 38 37  1  0
 39 38  2  0
 38 40  1  0
 41 38  1  0
 43 41  1  0
 42 43  1  0
 42 44  1  0
 42 45  1  0
 46 42  1  6
 46 47  1  0
 48 46  1  0
 48 49  2  0
 48 50  1  0
 51 50  1  0
 52 51  1  0
 53 52  1  0
 53 54  2  0
 53 55  1  0
 56 55  1  0
 57 56  1  0
 57 10  1  0
  2  3  1  0
  3  4  2  0
  1  2  2  0
M  END

> <chembl_id>
CHEMBL3706512

> <chembl_pref_name>
None

$$$$

     RDKit          2D

 12 10  0  0  0  0  0  0  0  0999 V2000
    0.9917   -6.0500    0.0000 Br  0  0  0  0  0  0  0  0  0  0  0  0
    2.1417   -2.8417    0.0000 C   0  0  0  0  0  0  0  0  0  0  0  0
    5.6542   -3.5875    0.0000 C   0  0  0  0  0  0  0  0  0  0  0  0
    1.3667   -3.9750    0.0000 N   0  0  0  0  0  0  0  0  0  0  0  0
    2.1417   -2.0417    0.0000 O   0  0  0  0  0  0  0  0  0  0  0  0
    5.5792   -4.4042    0.0000 O   0  0  0  0  0  0  0  0  0  0  0  0
    2.8125   -3.3250    0.0000 N   0  0  0  0  0  0  0  0  0  0  0  0
    4.9875   -3.1125    0.0000 S   0  0  0  0  0  0  0  0  0  0  0  0
    1.3792   -3.1125    0.0000 C   0  0  0  0  0  0  0  0  0  0  0  0
    6.4042   -3.2417    0.0000 C   0  0  0  0  0  0  0  0  0  0  0  0
    3.5625   -2.9792    0.0000 C   0  0  0  0  0  0  0  0  0  0  0  0
    4.2375   -3.4542    0.0000 C   0  0  0  0  0  0  0  0  0  0  0  0
  3  8  1  0
  4  9  1  0
  5  2  2  0
  6  3  2  0
  7  2  1  0
  8 12  1  0
  9  2  1  0
 10  3  1  0
 11  7  1  0
 12 11  1  0
M  END

> <chembl_id>
CHEMBL302738

> <chembl_pref_name>
None

$$$$

     RDKit          2D

 40 41  0  0  0  0  0  0  0  0999 V2000
   -2.3792  -17.1875    0.0000 C   0  0  0  0  0  0  0  0  0  0  0  0
   -0.9551  -17.1875    0.0000 N   0  0  0  0  0  0  0  0  0  0  0  0
   -1.6671  -16.7708    0.0000 C   0  0  0  0  0  0  0  0  0  0  0  0
   -3.0948  -16.7771    0.0000 O   0  0  0  0  0  0  0  0  0  0  0  0
   -1.6671  -15.9458    0.0000 C   0  0  0  0  0  0  0  0  0  0  0  0
   -2.3816  -15.5333    0.0000 C   0  0  0  0  0  0  0  0  0  0  0  0
   -2.3771  -14.7073    0.0000 C   0  0  0  0  0  0  0  0  0  0  0  0
   -3.0908  -14.2948    0.0000 C   0  0  0  0  0  0  0  0  0  0  0  0
   -3.8062  -14.7074    0.0000 C   0  0  0  0  0  0  0  0  0  0  0  0
   -3.8036  -15.5367    0.0000 C   0  0  0  0  0  0  0  0  0  0  0  0
   -3.0893  -15.9453    0.0000 C   0  0  0  0  0  0  0  0  0  0  0  0
   -0.2383  -16.7792    0.0000 C   0  0  0  0  0  0  0  0  0  0  0  0
    0.4738  -17.1959    0.0000 C   0  0  0  0  0  0  0  0  0  0  0  0
   -0.2334  -15.9542    0.0000 O   0  0  0  0  0  0  0  0  0  0  0  0
    0.4690  -18.0209    0.0000 N   0  0  0  0  0  0  0  0  0  0  0  0
    1.1907  -16.7876    0.0000 C   0  0  0  0  0  0  0  0  0  0  0  0
    1.1955  -15.9626    0.0000 C   0  0  0  0  0  0  0  0  0  0  0  0
    1.9124  -15.5543    0.0000 C   0  0  0  0  0  0  0  0  0  0  0  0
    0.4835  -15.5459    0.0000 C   0  0  0  0  0  0  0  0  0  0  0  0
    1.1810  -18.4375    0.0000 C   0  0  0  0  0  0  0  0  0  0  0  0
    1.1762  -19.2625    0.0000 C   0  0  0  0  0  0  0  0  0  0  0  0
    1.8979  -18.0292    0.0000 O   0  0  0  0  0  0  0  0  0  0  0  0
    0.4593  -19.6708    0.0000 N   0  0  0  0  0  0  0  0  0  0  0  0
    1.8882  -19.6792    0.0000 C   0  0  0  0  0  0  0  0  0  0  0  0
    2.6051  -19.2709    0.0000 O   0  0  0  0  0  0  0  0  0  0  0  0
   -0.2528  -19.2542    0.0000 C   0  0  0  0  0  0  0  0  0  0  0  0
   -0.9696  -19.6625    0.0000 C   0  0  0  0  0  0  0  0  0  0  0  0
   -0.2479  -18.4292    0.0000 O   0  0  0  0  0  0  0  0  0  0  0  0
   -1.6817  -19.2458    0.0000 N   0  0  0  0  0  0  0  0  0  0  0  0
   -0.9745  -20.4874    0.0000 C   0  0  0  0  0  0  0  0  0  0  0  0
   -0.2624  -20.9041    0.0000 O   0  0  0  0  0  0  0  0  0  0  0  0
   -2.3986  -19.6541    0.0000 C   0  0  0  0  0  0  0  0  0  0  0  0
   -3.1106  -19.2374    0.0000 C   0  0  0  0  0  0  0  0  0  0  0  0
   -2.4034  -20.4791    0.0000 O   0  0  0  0  0  0  0  0  0  0  0  0
   -3.1058  -18.4124    0.0000 C   0  0  0  0  0  0  0  0  0  0  0  0
   -2.3889  -18.0041    0.0000 S   0  0  0  0  0  0  0  0  0  0  0  0
   -3.8275  -19.6457    0.0000 N   0  0  0  0  0  0  0  0  0  0  0  0
   -4.5395  -19.2290    0.0000 C   0  0  0  0  0  0  0  0  0  0  0  0
   -5.2564  -19.6373    0.0000 C   0  0  0  0  0  0  0  0  0  0  0  0
   -4.5347  -18.4040    0.0000 O   0  0  0  0  0  0  0  0  0  0  0  0
 15 20  1  0
  9 10  1  0
 20 21  1  0
  3  5  1  6
 20 22  2  0
 10 11  2  0
 21 23  1  0
 11  6  1  0
 21 24  1  6
  1  3  1  0
 24 25  1  0
  2 12  1  0
 23 26  1  0
  5  6  1  0
 26 27  1  0
 12 13  1  0
 26 28  2  0
  2  3  1  0
 27 29  1  0
 12 14  2  0
 27 30  1  6
  6  7  2  0
 30 31  1  0
 13 15  1  0
 29 32  1  0
  1 36  1  0
 32 33  1  0
 13 16  1  6
 32 34  2  0
  7  8  1  0
 33 35  1  0
 16 17  1  0
 35 36  1  0
  1  4  2  0
 33 37  1  1
 17 18  1  0
 37 38  1  0
  8  9  2  0
 38 39  1  0
 17 19  1  0
 38 40  2  0
M  END

> <chembl_id>
CHEMBL1823954

> <chembl_pref_name>
None

$$$$

     RDKit          2D

 34 34  0  0  0  0  0  0  0  0999 V2000
   14.4088   -8.5071    0.0000 C   0  0  0  0  0  0  0  0  0  0  0  0
   15.1212   -8.9198    0.0000 C   0  0  0  0  0  0  0  0  0  0  0  0
   14.4118   -7.6837    0.0000 N   0  0  0  0  0  0  0  0  0  0  0  0
   12.2677   -4.8015    0.0000 C   0  0  0  0  0  0  0  0  0  0  0  0
   13.6994   -7.2710    0.0000 C   0  0  0  0  0  0  0  0  0  0  0  0
   15.1258   -9.7483    0.0000 N   0  0  0  0  0  0  0  0  0  0  0  0
   15.8425  -10.9802    0.0000 C   0  0  0  0  0  0  0  0  0  0  0  0
   15.8405   -8.5071    0.0000 O   0  0  0  0  0  0  0  0  0  0  0  0
   11.5520   -5.2122    0.0000 O   0  0  0  0  0  0  0  0  0  0  0  0
   12.9802   -5.2142    0.0000 C   0  0  0  0  0  0  0  0  0  0  0  0
   12.9837   -7.6818    0.0000 O   0  0  0  0  0  0  0  0  0  0  0  0
   15.1290  -11.3945    0.0000 O   0  0  0  0  0  0  0  0  0  0  0  0
   15.8342  -10.1537    0.0000 C   0  0  0  0  0  0  0  0  0  0  0  0
   12.9827   -6.0391    0.0000 C   0  0  0  0  0  0  0  0  0  0  0  0
   13.6952   -6.4518    0.0000 C   0  0  0  0  0  0  0  0  0  0  0  0
   12.2667   -3.9709    0.0000 O   0  0  0  0  0  0  0  0  0  0  0  0
   13.6994   -4.8015    0.0000 N   0  0  0  0  0  0  0  0  0  0  0  0
   12.9806   -8.5051    0.0000 S   0  0  0  0  0  0  0  0  0  0  0  0
   16.5570  -11.3965    0.0000 O   0  0  0  0  0  0  0  0  0  0  0  0
   13.6931   -8.9178    0.0000 C   0  0  0  0  0  0  0  0  0  0  0  0
   12.2556   -8.9177    0.0000 C   0  0  0  0  0  0  0  0  0  0  0  0
   11.5347   -8.5093    0.0000 C   0  0  0  0  0  0  0  0  0  0  0  0
   10.8220   -8.9302    0.0000 C   0  0  0  0  0  0  0  0  0  0  0  0
   12.2597   -9.7428    0.0000 O   0  0  0  0  0  0  0  0  0  0  0  0
   10.0927   -8.5093    0.0000 C   0  0  0  0  0  0  0  0  0  0  0  0
   10.8220   -9.7552    0.0000 C   0  0  0  0  0  0  0  0  0  0  0  0
    9.3844   -9.7552    0.0000 C   0  0  0  0  0  0  0  0  0  0  0  0
   10.0927  -10.1720    0.0000 C   0  0  0  0  0  0  0  0  0  0  0  0
    9.3844   -8.9302    0.0000 C   0  0  0  0  0  0  0  0  0  0  0  0
    8.6593  -10.1678    0.0000 C   0  0  0  0  0  0  0  0  0  0  0  0
   11.5221   -7.6842    0.0000 C   0  0  0  0  0  0  0  0  0  0  0  0
    7.9467   -9.7552    0.0000 C   0  0  0  0  0  0  0  0  0  0  0  0
    7.2342  -10.1678    0.0000 C   0  0  0  0  0  0  0  0  0  0  0  0
    7.9467   -8.9302    0.0000 C   0  0  0  0  0  0  0  0  0  0  0  0
  2  1  1  0
  1  3  1  6
  4 10  1  0
  5  3  1  0
  6  2  1  0
  7 13  1  0
  8  2  2  0
  9  4  2  0
 10 14  1  0
 11  5  2  0
 12  7  2  0
 13  6  1  0
 14 15  1  0
 15  5  1  0
 16  4  1  0
 10 17  1  1
 18 20  1  0
 19  7  1  0
 20  1  1  0
 22 21  1  0
 23 22  1  0
 24 21  2  0
 25 23  2  0
 26 23  1  0
 18 21  1  0
 27 28  1  0
 28 26  2  0
 29 25  1  0
 30 27  1  0
 31 22  1  0
 32 30  1  0
 33 32  1  0
 34 32  1  0
 27 29  2  0
M  END

> <chembl_id>
CHEMBL3526654

> <chembl_pref_name>
None

$$$$

     RDKit          2D

 39 40  0  0  0  0  0  0  0  0999 V2000
   15.6041   -7.3351    0.0000 C   0  0  0  0  0  0  0  0  0  0  0  0
   15.5967   -8.1585    0.0000 C   0  0  0  0  0  0  0  0  0  0  0  0
   16.3217   -6.9315    0.0000 N   0  0  0  0  0  0  0  0  0  0  0  0
   17.7703   -3.6444    0.0000 C   0  0  0  0  0  0  0  0  0  0  0  0
   16.3290   -6.1082    0.0000 C   0  0  0  0  0  0  0  0  0  0  0  0
   14.8784   -8.5713    0.0000 N   0  0  0  0  0  0  0  0  0  0  0  0
   14.1606   -9.8025    0.0000 C   0  0  0  0  0  0  0  0  0  0  0  0
   16.3106   -8.5803    0.0000 O   0  0  0  0  0  0  0  0  0  0  0  0
   17.0599   -3.2246    0.0000 O   0  0  0  0  0  0  0  0  0  0  0  0
   17.7629   -4.4677    0.0000 C   0  0  0  0  0  0  0  0  0  0  0  0
   15.6187   -5.6885    0.0000 O   0  0  0  0  0  0  0  0  0  0  0  0
   13.4482   -9.3864    0.0000 O   0  0  0  0  0  0  0  0  0  0  0  0
   14.8753   -9.3875    0.0000 C   0  0  0  0  0  0  0  0  0  0  0  0
   17.0468   -4.8770    0.0000 C   0  0  0  0  0  0  0  0  0  0  0  0
   17.0394   -5.7003    0.0000 C   0  0  0  0  0  0  0  0  0  0  0  0
   18.4922   -3.2336    0.0000 O   0  0  0  0  0  0  0  0  0  0  0  0
   18.4769   -4.8895    0.0000 N   0  0  0  0  0  0  0  0  0  0  0  0
   14.9011   -6.0921    0.0000 S   0  0  0  0  0  0  0  0  0  0  0  0
   14.1512  -10.6294    0.0000 O   0  0  0  0  0  0  0  0  0  0  0  0
   14.8937   -6.9154    0.0000 C   0  0  0  0  0  0  0  0  0  0  0  0
   10.7582   -6.9880    0.0000 O   0  0  0  0  0  0  0  0  0  0  0  0
    8.5658   -5.8550    0.0000 C   0  0  0  0  0  0  0  0  0  0  0  0
   12.0890   -6.2004    0.0000 N   0  0  0  0  0  0  0  0  0  0  0  0
    9.2213   -4.5819    0.0000 C   0  0  0  0  0  0  0  0  0  0  0  0
   12.0961   -7.0254    0.0000 C   0  0  0  0  0  0  0  0  0  0  0  0
   14.1700   -4.8660    0.0000 O   0  0  0  0  0  0  0  0  0  0  0  0
   14.1803   -5.6910    0.0000 C   0  0  0  0  0  0  0  0  0  0  0  0
   11.4154   -5.7191    0.0000 C   0  0  0  0  0  0  0  0  0  0  0  0
    9.9879   -5.7843    0.0000 C   0  0  0  0  0  0  0  0  0  0  0  0
   11.1786   -4.2678    0.0000 C   0  0  0  0  0  0  0  0  0  0  0  0
    7.7923   -4.6481    0.0000 Cl  0  0  0  0  0  0  0  0  0  0  0  0
   12.4925   -4.9266    0.0000 C   0  0  0  0  0  0  0  0  0  0  0  0
    8.5254   -5.0266    0.0000 C   0  0  0  0  0  0  0  0  0  0  0  0
   13.4709   -6.1123    0.0000 C   0  0  0  0  0  0  0  0  0  0  0  0
    9.9530   -4.9613    0.0000 C   0  0  0  0  0  0  0  0  0  0  0  0
    9.2979   -6.2307    0.0000 C   0  0  0  0  0  0  0  0  0  0  0  0
   10.7205   -6.1638    0.0000 C   0  0  0  0  0  0  0  0  0  0  0  0
   11.6674   -4.9324    0.0000 C   0  0  0  0  0  0  0  0  0  0  0  0
   12.7507   -5.7089    0.0000 C   0  0  0  0  0  0  0  0  0  0  0  0
  2  1  1  0
  1  3  1  6
  4 10  1  0
  5  3  1  0
  6  2  1  0
  7 13  1  0
  8  2  2  0
  9  4  2  0
 10 14  1  0
 11  5  2  0
 12  7  2  0
 13  6  1  0
 14 15  1  0
 15  5  1  0
 16  4  1  0
 10 17  1  1
 18 20  1  0
 19  7  1  0
 20  1  1  0
 33 31  1  0
 27 18  1  0
 34 27  1  0
 24 33  2  0
 39 32  2  0
 38 28  2  0
 36 29  1  0
 22 36  2  0
 29 35  2  0
 32 38  1  0
 39 34  1  0
 28 37  1  0
 28 23  1  0
 37 29  1  0
 27 26  2  0
 23 25  1  0
 37 21  2  0
 38 30  1  0
 23 39  1  0
 33 22  1  0
 35 24  1  0
M  END

> <chembl_id>
CHEMBL3526287

> <chembl_pref_name>
None

$$$$

     RDKit          2D

 33 34  0  0  1  0  0  0  0  0999 V2000
   -1.4917  -10.5167    0.0000 N   0  0  0  0  0  0  0  0  0  0  0  0
   -0.8796  -10.1625    0.0000 C   0  0  0  0  0  0  0  0  0  0  0  0
   -0.2635  -10.5167    0.0000 C   0  0  0  0  0  0  0  0  0  0  0  0
   -0.2635  -11.2250    0.0000 O   0  0  0  0  0  0  0  0  0  0  0  0
   -0.8796   -9.4542    0.0000 C   0  0  0  0  0  0  0  0  0  0  0  0
   -0.2635   -9.1000    0.0000 S   0  0  0  0  0  0  0  0  0  0  0  0
    2.0500  -10.8708    0.0000 N   0  0  0  0  0  0  0  0  0  0  0  0
    1.6417  -10.3000    0.0000 C   0  0  0  0  0  0  0  0  0  0  0  0
    1.6250  -11.4375    0.0000 C   0  0  0  0  0  0  0  0  0  0  0  0
    0.9667  -10.5125    0.0000 C   0  0  0  0  0  0  0  0  0  0  0  0
    0.9583  -11.2167    0.0000 C   0  0  0  0  0  0  0  0  0  0  0  0
    8.1500  -10.8292    0.0000 C   0  0  0  0  0  0  0  0  0  0  0  0
    5.7125  -10.8292    0.0000 N   0  0  0  0  0  0  0  0  0  0  0  0
    6.3208  -10.4792    0.0000 C   0  0  0  0  0  0  0  0  0  0  0  0
    7.5333  -10.4792    0.0000 N   0  0  0  0  0  0  0  0  0  0  0  0
    8.7625  -10.4792    0.0000 C   0  0  0  0  0  0  0  0  0  0  0  0
    5.0917  -10.4833    0.0000 C   0  0  0  0  0  0  0  0  0  0  0  0
    1.6375   -9.6000    0.0000 O   0  0  0  0  0  0  0  0  0  0  0  0
    1.6250  -12.1375    0.0000 O   0  0  0  0  0  0  0  0  0  0  0  0
    8.1500  -11.5375    0.0000 O   0  0  0  0  0  0  0  0  0  0  0  0
    9.3667  -10.8292    0.0000 C   0  0  0  0  0  0  0  0  0  0  0  0
    6.3167   -9.7708    0.0000 O   0  0  0  0  0  0  0  0  0  0  0  0
    6.9333  -10.8292    0.0000 C   0  0  0  0  0  0  0  0  0  0  0  0
    2.6500  -10.5125    0.0000 C   0  0  0  0  0  0  0  0  0  0  0  0
    9.9708  -10.4833    0.0000 C   0  0  0  0  0  0  0  0  0  0  0  0
    8.7542   -9.7750    0.0000 C   0  0  0  0  0  0  0  0  0  0  0  0
    9.3583   -9.4250    0.0000 C   0  0  0  0  0  0  0  0  0  0  0  0
    4.4875  -10.8458    0.0000 C   0  0  0  0  0  0  0  0  0  0  0  0
    9.9792   -9.7750    0.0000 C   0  0  0  0  0  0  0  0  0  0  0  0
   10.5750  -10.8292    0.0000 I   0  0  0  0  0  0  0  0  0  0  0  0
    3.2667  -10.8625    0.0000 C   0  0  0  0  0  0  0  0  0  0  0  0
    3.8708  -10.4917    0.0000 C   0  0  0  0  0  0  0  0  0  0  0  0
    0.3500  -10.1583    0.0000 S   0  0  0  0  0  0  0  0  0  0  0  0
  5  6  1  0
  1  2  1  0
  2  3  1  0
  3  4  2  0
  8  7  1  0
  9  7  1  0
 10  8  1  0
 11  9  1  0
 12 15  1  0
 13 17  1  0
 14 13  1  0
 15 23  1  0
 16 12  1  0
 17 28  1  0
 18  8  2  0
 19  9  2  0
 20 12  2  0
 21 16  2  0
 22 14  2  0
 23 14  1  0
 24  7  1  0
 25 21  1  0
 26 16  1  0
 27 26  2  0
 28 32  1  0
 29 27  1  0
 30 25  1  0
 31 24  1  0
 32 31  1  0
 10 11  1  0
 25 29  2  0
  2  5  1  1
 10 33  1  0
 33  3  1  0
M  END

> <chembl_id>
CHEMBL1908967

> <chembl_pref_name>
None

$$$$

     RDKit          2D

 12 11  0  0  0  0  0  0  0  0999 V2000
    0.5542   -4.7292    0.0000 C   0  0  0  0  0  0  0  0  0  0  0  0
    4.0792   -5.4667    0.0000 C   0  0  0  0  0  0  0  0  0  0  0  0
   -0.2333   -5.8167    0.0000 N   0  0  0  0  0  0  0  0  0  0  0  0
    0.5542   -3.9042    0.0000 O   0  0  0  0  0  0  0  0  0  0  0  0
   -0.2250   -5.0167    0.0000 C   0  0  0  0  0  0  0  0  0  0  0  0
    4.0042   -6.2917    0.0000 O   0  0  0  0  0  0  0  0  0  0  0  0
    1.2292   -5.2042    0.0000 N   0  0  0  0  0  0  0  0  0  0  0  0
    3.4042   -4.9917    0.0000 S   0  0  0  0  0  0  0  0  0  0  0  0
    4.8292   -5.1167    0.0000 C   0  0  0  0  0  0  0  0  0  0  0  0
    1.9792   -4.8625    0.0000 C   0  0  0  0  0  0  0  0  0  0  0  0
    2.6542   -5.3375    0.0000 C   0  0  0  0  0  0  0  0  0  0  0  0
   -0.9083   -4.5417    0.0000 C   0  0  0  0  0  0  0  0  0  0  0  0
  2  8  1  0
  3  5  1  0
  4  1  2  0
  5  1  1  0
  6  2  2  0
  7  1  1  0
  8 11  1  0
  9  2  1  0
 10  7  1  0
 11 10  1  0
  5 12  1  1
M  END

> <chembl_id>
CHEMBL1179366

> <chembl_pref_name>
None

$$$$

     RDKit          2D

 14 13  0  0  0  0  0  0  0  0999 V2000
    5.4667    0.2458    0.0000 C   0  0  0  0  0  0  0  0  0  0  0  0
    6.2167    0.5875    0.0000 C   0  0  0  0  0  0  0  0  0  0  0  0
    1.9500    0.9875    0.0000 C   0  0  0  0  0  0  0  0  0  0  0  0
    1.1792   -0.1417    0.0000 N   0  0  0  0  0  0  0  0  0  0  0  0
    5.3917   -0.5750    0.0000 O   0  0  0  0  0  0  0  0  0  0  0  0
    1.9500    1.7958    0.0000 O   0  0  0  0  0  0  0  0  0  0  0  0
    4.7917    0.7208    0.0000 S   0  0  0  0  0  0  0  0  0  0  0  0
    2.6167    0.5083    0.0000 N   0  0  0  0  0  0  0  0  0  0  0  0
    1.1875    0.7208    0.0000 C   0  0  0  0  0  0  0  0  0  0  0  0
    6.8917    0.1125    0.0000 C   0  0  0  0  0  0  0  0  0  0  0  0
    6.2917    1.4125    0.0000 C   0  0  0  0  0  0  0  0  0  0  0  0
    7.0125    0.8083    0.0000 C   0  0  0  0  0  0  0  0  0  0  0  0
    4.0417    0.3833    0.0000 C   0  0  0  0  0  0  0  0  0  0  0  0
    3.3667    0.8583    0.0000 C   0  0  0  0  0  0  0  0  0  0  0  0
  2  1  1  0
  3  8  1  0
  4  9  1  0
  5  1  2  0
  6  3  2  0
  7  1  1  0
  8 14  1  0
  9  3  1  0
 10  2  1  0
 11  2  1  0
 12  2  1  0
 13  7  1  0
 14 13  1  0
M  END

> <chembl_id>
CHEMBL1179301

> <chembl_pref_name>
None

$$$$

     RDKit          2D

 13 12  0  0  0  0  0  0  0  0999 V2000
    8.3292   -2.3292    0.0000 C   0  0  0  0  0  0  0  0  0  0  0  0
    9.0792   -1.9875    0.0000 C   0  0  0  0  0  0  0  0  0  0  0  0
    4.8167   -1.5917    0.0000 C   0  0  0  0  0  0  0  0  0  0  0  0
    4.0417   -2.7167    0.0000 N   0  0  0  0  0  0  0  0  0  0  0  0
    8.2542   -3.1542    0.0000 O   0  0  0  0  0  0  0  0  0  0  0  0
    4.8167   -0.7875    0.0000 O   0  0  0  0  0  0  0  0  0  0  0  0
    7.6625   -1.8542    0.0000 S   0  0  0  0  0  0  0  0  0  0  0  0
    5.4875   -2.0667    0.0000 N   0  0  0  0  0  0  0  0  0  0  0  0
    9.2917   -1.1875    0.0000 Cl  0  0  0  0  0  0  0  0  0  0  0  0
    9.7542   -2.4667    0.0000 Cl  0  0  0  0  0  0  0  0  0  0  0  0
    4.0542   -1.8542    0.0000 C   0  0  0  0  0  0  0  0  0  0  0  0
    6.9125   -2.2000    0.0000 C   0  0  0  0  0  0  0  0  0  0  0  0
    6.2375   -1.7250    0.0000 C   0  0  0  0  0  0  0  0  0  0  0  0
  2  1  1  0
  3  8  1  0
  4 11  1  0
  5  1  2  0
  6  3  2  0
  7  1  1  0
  8 13  1  0
  9  2  1  0
 10  2  1  0
 11  3  1  0
 12  7  1  0
 13 12  1  0
M  END

> <chembl_id>
CHEMBL1179330

> <chembl_pref_name>
None

$$$$

     RDKit          2D

 13 12  0  0  0  0  0  0  0  0999 V2000
   -2.6957    1.1959    0.0000 S   0  0  0  0  0  0  0  0  0  0  0  0
   -3.4102    2.4334    0.0000 O   0  0  0  0  0  0  0  0  0  0  0  0
    0.1621    0.3709    0.0000 O   0  0  0  0  0  0  0  0  0  0  0  0
   -0.5523    1.6084    0.0000 N   0  0  0  0  0  0  0  0  0  0  0  0
   -3.4102    1.6084    0.0000 C   0  0  0  0  0  0  0  0  0  0  0  0
    0.1621    1.1959    0.0000 C   0  0  0  0  0  0  0  0  0  0  0  0
   -1.9813    1.6084    0.0000 C   0  0  0  0  0  0  0  0  0  0  0  0
   -1.2668    1.1959    0.0000 C   0  0  0  0  0  0  0  0  0  0  0  0
   -4.1247    1.1959    0.0000 C   0  0  0  0  0  0  0  0  0  0  0  0
    0.8766    1.6084    0.0000 C   0  0  0  0  0  0  0  0  0  0  0  0
   -4.8392    0.7834    0.0000 C   0  0  0  0  0  0  0  0  0  0  0  0
    1.5911    1.1959    0.0000 C   0  0  0  0  0  0  0  0  0  0  0  0
   -5.5536    0.3709    0.0000 C   0  0  0  0  0  0  0  0  0  0  0  0
  1  5  1  0
  1  7  1  0
  2  5  2  0
  3  6  2  0
  4  6  1  0
  4  8  1  0
  5  9  1  0
  6 10  1  0
  7  8  1  0
  9 11  3  0
 10 12  1  0
 11 13  1  0
M  END

> <chembl_id>
CHEMBL1971648

> <chembl_pref_name>
None

$$$$

     RDKit          2D

 26 27  0  0  1  0  0  0  0  0999 V2000
    1.1684   -0.6261    0.0000 C   0  0  0  0  0  0  0  0  0  0  0  0
   -0.3174   -0.5952    0.0000 C   0  0  0  0  0  0  0  0  0  0  0  0
    1.9708   -0.6261    0.0000 S   0  0  0  0  0  0  0  0  0  0  0  0
   -1.0405   -0.1852    0.0000 C   0  0  0  0  0  0  0  0  0  0  0  0
    0.4012   -0.1896    0.0000 C   0  0  0  0  0  0  0  0  0  0  0  0
   -1.7547   -0.5952    0.0000 C   0  0  0  0  0  0  0  0  0  0  0  0
   -1.7547   -1.4197    0.0000 C   0  0  0  0  0  0  0  0  0  0  0  0
   -0.3174   -1.4197    0.0000 C   0  0  0  0  0  0  0  0  0  0  0  0
    0.9788   -1.3933    0.0000 O   0  0  0  0  0  0  0  0  0  0  0  0
   -2.4602   -1.8165    0.0000 C   0  0  0  0  0  0  0  0  0  0  0  0
   -1.0405   -1.8165    0.0000 C   0  0  0  0  0  0  0  0  0  0  0  0
   -2.4602   -0.1852    0.0000 C   0  0  0  0  0  0  0  0  0  0  0  0
   -3.1832   -1.4197    0.0000 C   0  0  0  0  0  0  0  0  0  0  0  0
   -3.1832   -0.5952    0.0000 C   0  0  0  0  0  0  0  0  0  0  0  0
   -3.8975   -1.8165    0.0000 O   0  0  0  0  0  0  0  0  0  0  0  0
    0.7187    0.6701    0.0000 C   0  0  0  0  0  0  0  0  0  0  0  0
   -4.5985   -1.4065    0.0000 C   0  0  0  0  0  0  0  0  0  0  0  0
    2.3833   -1.3406    0.0000 C   0  0  0  0  0  0  0  0  0  0  0  0
    3.2083   -1.3406    0.0000 C   0  0  0  0  0  0  0  0  0  0  0  0
    3.6208   -2.0550    0.0000 N   0  0  0  0  0  0  0  0  0  0  0  0
    3.6208   -0.6261    0.0000 C   0  0  0  0  0  0  0  0  0  0  0  0
    4.4458   -0.6261    0.0000 O   0  0  0  0  0  0  0  0  0  0  0  0
    3.2083    0.0884    0.0000 O   0  0  0  0  0  0  0  0  0  0  0  0
    4.4458   -2.0550    0.0000 C   0  0  0  0  0  0  0  0  0  0  0  0
    4.8583   -2.7695    0.0000 C   0  0  0  0  0  0  0  0  0  0  0  0
    4.8583   -1.3406    0.0000 O   0  0  0  0  0  0  0  0  0  0  0  0
  1  3  1  0
  2  5  1  0
  4  2  2  0
  5  1  1  0
  6  4  1  0
  7 11  1  0
  8  2  1  0
  9  1  2  0
 10  7  2  0
 11  8  2  0
 12  6  2  0
 13 10  1  0
 14 12  1  0
 15 13  1  0
  5 16  1  6
 17 15  1  0
  6  7  1  0
 14 13  2  0
  3 18  1  0
 19 18  1  1
 19 20  1  0
 19 21  1  0
 21 22  1  0
 21 23  2  0
 20 24  1  0
 24 25  1  0
 24 26  2  0
M  END

> <chembl_id>
CHEMBL2104532

> <chembl_pref_name>
CINAPROXEN

$$$$

     RDKit          2D

 14 13  0  0  0  0  0  0  0  0999 V2000
    9.0792   -1.9875    0.0000 C   0  0  0  0  0  0  0  0  0  0  0  0
    8.3292   -2.3292    0.0000 C   0  0  0  0  0  0  0  0  0  0  0  0
    4.8167   -1.5917    0.0000 C   0  0  0  0  0  0  0  0  0  0  0  0
    4.0417   -2.7167    0.0000 N   0  0  0  0  0  0  0  0  0  0  0  0
    8.2542   -3.1542    0.0000 O   0  0  0  0  0  0  0  0  0  0  0  0
    4.8167   -0.7875    0.0000 O   0  0  0  0  0  0  0  0  0  0  0  0
    9.2917   -1.1875    0.0000 Cl  0  0  0  0  0  0  0  0  0  0  0  0
    9.8792   -1.7667    0.0000 Cl  0  0  0  0  0  0  0  0  0  0  0  0
    9.7542   -2.4667    0.0000 Cl  0  0  0  0  0  0  0  0  0  0  0  0
    7.6625   -1.8542    0.0000 S   0  0  0  0  0  0  0  0  0  0  0  0
    5.4875   -2.0667    0.0000 N   0  0  0  0  0  0  0  0  0  0  0  0
    4.0542   -1.8542    0.0000 C   0  0  0  0  0  0  0  0  0  0  0  0
    6.9125   -2.2000    0.0000 C   0  0  0  0  0  0  0  0  0  0  0  0
    6.2375   -1.7250    0.0000 C   0  0  0  0  0  0  0  0  0  0  0  0
  2  1  1  0
  3 11  1  0
  4 12  1  0
  5  2  2  0
  6  3  2  0
  7  1  1  0
  8  1  1  0
  9  1  1  0
 10  2  1  0
 11 14  1  0
 12  3  1  0
 13 10  1  0
 14 13  1  0
M  END

> <chembl_id>
CHEMBL1185528

> <chembl_pref_name>
None

$$$$

     RDKit          2D

 57 59  0  0  0  0  0  0  0  0999 V2000
    5.4250   -0.3291    0.0000 S   0  0  0  0  0  0  0  0  0  0  0  0
    6.1395    0.0834    0.0000 C   0  0  0  0  0  0  0  0  0  0  0  0
    6.8540   -0.3291    0.0000 C   0  0  0  0  0  0  0  0  0  0  0  0
    7.5684    0.0834    0.0000 N   0  0  0  0  0  0  0  0  0  0  0  0
    8.2829   -0.3291    0.0000 C   0  0  0  0  0  0  0  0  0  0  0  0
    8.9974    0.0834    0.0000 C   0  0  0  0  0  0  0  0  0  0  0  0
    8.2829   -1.1541    0.0000 O   0  0  0  0  0  0  0  0  0  0  0  0
    9.7119   -0.3291    0.0000 C   0  0  0  0  0  0  0  0  0  0  0  0
   10.4263    0.0834    0.0000 N   0  0  0  0  0  0  0  0  0  0  0  0
   11.1408   -0.3291    0.0000 C   0  0  0  0  0  0  0  0  0  0  0  0
   11.8553    0.0834    0.0000 C   0  0  0  0  0  0  0  0  0  0  0  0
   11.1408   -1.1541    0.0000 O   0  0  0  0  0  0  0  0  0  0  0  0
   12.5697   -0.3291    0.0000 C   0  0  0  0  0  0  0  0  0  0  0  0
   11.8553    0.9084    0.0000 O   0  0  0  0  0  0  0  0  0  0  0  0
   13.2842    0.0834    0.0000 C   0  0  0  0  0  0  0  0  0  0  0  0
   12.1500   -1.0375    0.0000 C   0  0  0  0  0  0  0  0  0  0  0  0
   12.9750   -1.0375    0.0000 C   0  0  0  0  0  0  0  0  0  0  0  0
   13.9987   -0.3291    0.0000 O   0  0  0  0  0  0  0  0  0  0  0  0
   14.7132    0.0834    0.0000 P   0  0  0  0  0  0  0  0  0  0  0  0
   15.4276   -0.3291    0.0000 O   0  0  0  0  0  0  0  0  0  0  0  0
   14.7084    0.9125    0.0000 O   0  0  0  0  0  0  0  0  0  0  0  0
   14.7084   -0.7375    0.0000 O   0  0  0  0  0  0  0  0  0  0  0  0
   16.1421    0.0834    0.0000 P   0  0  0  0  0  0  0  0  0  0  0  0
   16.8566   -0.3291    0.0000 O   0  0  0  0  0  0  0  0  0  0  0  0
   16.1421    0.9084    0.0000 O   0  0  0  0  0  0  0  0  0  0  0  0
   16.1375   -0.7375    0.0000 O   0  0  0  0  0  0  0  0  0  0  0  0
   17.5710    0.0834    0.0000 C   0  0  0  0  0  0  0  0  0  0  0  0
   18.2864   -0.3286    0.0000 C   0  0  0  0  0  0  0  0  0  0  0  0
   18.5458   -1.1092    0.0000 C   0  0  0  0  0  0  0  0  0  0  0  0
   19.3707   -1.1037    0.0000 C   0  0  0  0  0  0  0  0  0  0  0  0
   19.6205   -0.3173    0.0000 C   0  0  0  0  0  0  0  0  0  0  0  0
   18.9497    0.1630    0.0000 O   0  0  0  0  0  0  0  0  0  0  0  0
   20.3292    0.1000    0.0000 N   0  0  0  0  0  0  0  0  0  0  0  0
   18.1442   -1.8294    0.0000 O   0  0  0  0  0  0  0  0  0  0  0  0
   17.3193   -1.8419    0.0000 P   0  0  0  0  0  0  0  0  0  0  0  0
   16.9177   -2.5625    0.0000 O   0  0  0  0  0  0  0  0  0  0  0  0
   16.8960   -1.1338    0.0000 O   0  0  0  0  0  0  0  0  0  0  0  0
   17.8026   -2.5007    0.0000 O   0  0  0  0  0  0  0  0  0  0  0  0
   19.8601   -1.7679    0.0000 O   0  0  0  0  0  0  0  0  0  0  0  0
   20.9947   -0.3833    0.0000 C   0  0  0  0  0  0  0  0  0  0  0  0
   21.6600    0.1003    0.0000 N   0  0  0  0  0  0  0  0  0  0  0  0
   20.5832    0.8823    0.0000 C   0  0  0  0  0  0  0  0  0  0  0  0
   21.4066    0.8796    0.0000 C   0  0  0  0  0  0  0  0  0  0  0  0
   21.8183    1.5874    0.0000 C   0  0  0  0  0  0  0  0  0  0  0  0
   21.4112    2.3024    0.0000 N   0  0  0  0  0  0  0  0  0  0  0  0
   20.5879    2.3051    0.0000 C   0  0  0  0  0  0  0  0  0  0  0  0
   20.1715    1.5928    0.0000 N   0  0  0  0  0  0  0  0  0  0  0  0
   22.6433    1.5835    0.0000 N   0  0  0  0  0  0  0  0  0  0  0  0
    4.7106    0.0834    0.0000 C   0  0  0  0  0  0  0  0  0  0  0  0
    3.9961   -0.3291    0.0000 C   0  0  0  0  0  0  0  0  0  0  0  0
    4.7106    0.9084    0.0000 O   0  0  0  0  0  0  0  0  0  0  0  0
    3.2816    0.0834    0.0000 C   0  0  0  0  0  0  0  0  0  0  0  0
    2.5671   -0.3291    0.0000 C   0  0  0  0  0  0  0  0  0  0  0  0
    1.8527    0.0834    0.0000 C   0  0  0  0  0  0  0  0  0  0  0  0
    1.1382   -0.3291    0.0000 C   0  0  0  0  0  0  0  0  0  0  0  0
    0.4237    0.0834    0.0000 C   0  0  0  0  0  0  0  0  0  0  0  0
   -0.2908   -0.3291    0.0000 C   0  0  0  0  0  0  0  0  0  0  0  0
 13 16  1  0
 29 30  1  0
 30 31  1  0
 31 32  1  0
 32 28  1  0
 31 33  1  1
 13 17  1  0
 29 34  1  6
  8  9  1  0
 34 35  1  0
 15 18  1  0
 35 36  1  0
  4  5  1  0
 35 37  2  0
 18 19  1  0
 35 38  1  0
  9 10  1  0
 30 39  1  6
 33 40  1  0
 19 20  1  0
  2  3  1  0
 40 41  2  0
 41 43  1  0
 42 33  1  0
 42 43  2  0
 19 21  2  0
 10 11  1  0
 19 22  1  0
  5  6  1  0
 20 23  1  0
 10 12  2  0
 42 47  1  0
 43 44  1  0
 44 45  2  0
 45 46  1  0
 46 47  2  0
 23 24  1  0
 44 48  1  0
  1  2  1  0
  1 49  1  0
 23 25  2  0
 49 50  1  0
 11 13  1  0
 49 51  2  0
 23 26  1  0
 50 52  1  0
  5  7  2  0
 52 53  2  0
 24 27  1  0
 53 54  1  0
 11 14  1  0
 54 55  1  0
 28 27  1  1
 28 29  1  0
  3  4  1  0
 13 15  1  0
 55 56  1  0
  6  8  1  0
 56 57  1  0
M  END

> <chembl_id>
CHEMBL1949904

> <chembl_pref_name>
None

$$$$

     RDKit          2D

 36 37  0  0  1  0  0  0  0  0999 V2000
    0.9444  -14.0793    0.0000 N   0  0  0  0  0  0  0  0  0  0  0  0
    0.4774  -14.7623    0.0000 C   0  0  0  0  0  0  0  0  0  0  0  0
    0.9843  -15.4105    0.0000 C   0  0  0  0  0  0  0  0  0  0  0  0
    1.7341  -14.3101    0.0000 C   0  0  0  0  0  0  0  0  0  0  0  0
    1.7560  -15.1375    0.0000 C   0  0  0  0  0  0  0  0  0  0  0  0
    2.5654  -14.2870    0.0000 C   0  0  0  0  0  0  0  0  0  0  0  0
    1.7151  -13.2365    0.0000 C   0  0  0  0  0  0  0  0  0  0  0  0
    2.4854  -12.8162    0.0000 C   0  0  0  0  0  0  0  0  0  0  0  0
    3.2391  -13.2735    0.0000 C   0  0  0  0  0  0  0  0  0  0  0  0
    4.0071  -12.8567    0.0000 C   0  0  0  0  0  0  0  0  0  0  0  0
    4.0327  -11.9792    0.0000 C   0  0  0  0  0  0  0  0  0  0  0  0
    3.2837  -11.5200    0.0000 C   0  0  0  0  0  0  0  0  0  0  0  0
    2.5091  -11.9383    0.0000 C   0  0  0  0  0  0  0  0  0  0  0  0
    1.7207  -12.3740    0.0000 H   0  0  0  0  0  0  0  0  0  0  0  0
   -0.3472  -14.7887    0.0000 O   0  0  0  0  0  0  0  0  0  0  0  0
    0.7536  -16.2026    0.0000 C   0  0  0  0  0  0  0  0  0  0  0  0
   -0.0477  -16.3988    0.0000 C   0  0  0  0  0  0  0  0  0  0  0  0
   -0.2784  -17.1908    0.0000 C   0  0  0  0  0  0  0  0  0  0  0  0
   -1.0796  -17.3870    0.0000 C   0  0  0  0  0  0  0  0  0  0  0  0
   -1.6502  -16.7912    0.0000 C   0  0  0  0  0  0  0  0  0  0  0  0
   -2.4482  -16.9874    0.0000 C   0  0  0  0  0  0  0  0  0  0  0  0
    1.7499  -15.9612    0.0000 C   0  0  0  0  0  0  0  0  0  0  0  0
    1.0020  -12.8218    0.0000 O   0  0  0  0  0  0  0  0  0  0  0  0
    3.0024  -14.9942    0.0000 S   0  0  0  0  0  0  0  0  0  0  0  0
    2.8916  -13.6710    0.0000 O   0  0  0  0  0  0  0  0  0  0  0  0
    2.5790  -15.1363    0.0000 O   0  0  0  0  0  0  0  0  0  0  0  0
    3.8269  -14.9695    0.0000 C   0  0  0  0  0  0  0  0  0  0  0  0
    4.2606  -15.6713    0.0000 C   0  0  0  0  0  0  0  0  0  0  0  0
    3.8697  -16.3977    0.0000 N   0  0  0  0  0  0  0  0  0  0  0  0
    5.0851  -15.6466    0.0000 C   0  0  0  0  0  0  0  0  0  0  0  0
    5.5187  -16.3484    0.0000 O   0  0  0  0  0  0  0  0  0  0  0  0
    5.4761  -14.9202    0.0000 O   0  0  0  0  0  0  0  0  0  0  0  0
    4.3032  -17.0995    0.0000 C   0  0  0  0  0  0  0  0  0  0  0  0
    3.9124  -17.8258    0.0000 O   0  0  0  0  0  0  0  0  0  0  0  0
    5.1279  -17.0748    0.0000 C   0  0  0  0  0  0  0  0  0  0  0  0
    6.3433  -16.3238    0.0000 C   0  0  0  0  0  0  0  0  0  0  0  0
  8  9  1  0
 17 18  1  0
  4  5  1  0
 18 19  1  0
 19 20  1  0
  4  1  1  0
 20 21  1  0
  1  2  1  0
  5 22  1  0
  4  6  1  1
  7 23  1  1
  8 13  1  0
  9 10  2  0
  6 24  1  0
  6 25  2  0
 10 11  1  0
  5 26  1  1
 11 12  1  0
 24 27  1  0
 12 13  1  0
 28 27  1  1
  2  3  1  0
 28 29  1  0
  8 14  1  6
 28 30  1  0
  4  7  1  0
 30 31  1  0
  2 15  2  0
 30 32  2  0
  3  5  1  0
 29 33  1  0
  3 16  1  1
 33 34  2  0
 33 35  1  0
  7  8  1  0
 16 17  1  0
 31 36  1  0
M  END

> <chembl_id>
CHEMBL447239

> <chembl_pref_name>
CINNABARAMIDE G

$$$$

     RDKit          2D

 72 75  0  0  1  0  0  0  0  0999 V2000
    3.7000   -0.3417    0.0000 N   0  0  0  0  0  0  0  0  0  0  0  0
    3.0167   -1.1167    0.0000 C   0  0  0  0  0  0  0  0  0  0  0  0
   -0.2208    0.5083    0.0000 C   0  0  0  0  0  0  0  0  0  0  0  0
    0.2750    0.3458    0.0000 C   0  0  0  0  0  0  0  0  0  0  0  0
    3.3167    1.0875    0.0000 N   0  0  0  0  0  0  0  0  0  0  0  0
    2.5167   -1.2542    0.0000 N   0  0  0  0  0  0  0  0  0  0  0  0
    1.4250    0.9625    0.0000 C   0  0  0  0  0  0  0  0  0  0  0  0
    3.7667    0.1708    0.0000 C   0  0  0  0  0  0  0  0  0  0  0  0
   -0.6083    0.1583    0.0000 N   0  0  0  0  0  0  0  0  0  0  0  0
    1.8375    1.2875    0.0000 N   0  0  0  0  0  0  0  0  0  0  0  0
    2.8542    1.3500    0.0000 C   0  0  0  0  0  0  0  0  0  0  0  0
    1.1667    0.5125    0.0000 C   0  0  0  0  0  0  0  0  0  0  0  0
   -1.1083    0.3208    0.0000 C   0  0  0  0  0  0  0  0  0  0  0  0
    3.4375   -0.8000    0.0000 C   0  0  0  0  0  0  0  0  0  0  0  0
    0.6667    0.6833    0.0000 N   0  0  0  0  0  0  0  0  0  0  0  0
    3.6292    0.6750    0.0000 C   0  0  0  0  0  0  0  0  0  0  0  0
    1.5500   -0.9167    0.0000 C   0  0  0  0  0  0  0  0  0  0  0  0
    1.2292   -0.5125    0.0000 S   0  0  0  0  0  0  0  0  0  0  0  0
   -1.4958   -0.0292    0.0000 C   0  0  0  0  0  0  0  0  0  0  0  0
    2.0042   -1.1792    0.0000 C   0  0  0  0  0  0  0  0  0  0  0  0
    2.3417    1.4208    0.0000 C   0  0  0  0  0  0  0  0  0  0  0  0
   -1.9958    0.1333    0.0000 N   0  0  0  0  0  0  0  0  0  0  0  0
   -6.1167    0.0583    0.0000 C   0  0  0  0  0  0  0  0  0  0  0  0
    1.0917   -0.0042    0.0000 C   0  0  0  0  0  0  0  0  0  0  0  0
   -2.3833   -0.2167    0.0000 C   0  0  0  0  0  0  0  0  0  0  0  0
   -5.6250   -0.1042    0.0000 C   0  0  0  0  0  0  0  0  0  0  0  0
    3.2542   -1.5875    0.0000 O   0  0  0  0  0  0  0  0  0  0  0  0
    0.3792   -0.1667    0.0000 O   0  0  0  0  0  0  0  0  0  0  0  0
    1.0292    1.3083    0.0000 O   0  0  0  0  0  0  0  0  0  0  0  0
    4.0667    0.2083    0.0000 O   0  0  0  0  0  0  0  0  0  0  0  0
    3.0292    1.8458    0.0000 O   0  0  0  0  0  0  0  0  0  0  0  0
   -1.2083    0.8333    0.0000 O   0  0  0  0  0  0  0  0  0  0  0  0
    4.1000    0.9083    0.0000 C   0  0  0  0  0  0  0  0  0  0  0  0
    1.2042   -1.3167    0.0000 O   0  0  0  0  0  0  0  0  0  0  0  0
   -6.5042   -0.2917    0.0000 O   0  0  0  0  0  0  0  0  0  0  0  0
   -0.3250    1.0125    0.0000 C   0  0  0  0  0  0  0  0  0  0  0  0
   -6.2167    0.5625    0.0000 C   0  0  0  0  0  0  0  0  0  0  0  0
   -2.2708   -0.7250    0.0000 O   0  0  0  0  0  0  0  0  0  0  0  0
   -5.5208   -0.6167    0.0000 C   0  0  0  0  0  0  0  0  0  0  0  0
   -5.2458    0.2458    0.0000 C   0  0  0  0  0  0  0  0  0  0  0  0
    3.8292   -1.1417    0.0000 C   0  0  0  0  0  0  0  0  0  0  0  0
    1.8375   -1.6792    0.0000 C   0  0  0  0  0  0  0  0  0  0  0  0
   -4.6458   -0.4250    0.0000 C   0  0  0  0  0  0  0  0  0  0  0  0
    4.5375    0.6208    0.0000 C   0  0  0  0  0  0  0  0  0  0  0  0
   -5.0208   -0.7792    0.0000 C   0  0  0  0  0  0  0  0  0  0  0  0
   -4.7458    0.0833    0.0000 C   0  0  0  0  0  0  0  0  0  0  0  0
    1.1542   -2.2750    0.0000 S   0  0  0  0  0  0  0  0  0  0  0  0
   -1.3833   -0.5417    0.0000 C   0  0  0  0  0  0  0  0  0  0  0  0
    0.0542    1.3625    0.0000 O   0  0  0  0  0  0  0  0  0  0  0  0
   -4.1458   -0.5917    0.0000 O   0  0  0  0  0  0  0  0  0  0  0  0
   -0.8875   -0.7000    0.0000 O   0  0  0  0  0  0  0  0  0  0  0  0
   -2.8708   -0.0542    0.0000 C   0  0  0  0  0  0  0  0  0  0  0  0
    2.3042    1.9458    0.0000 C   0  0  0  0  0  0  0  0  0  0  0  0
    1.3167   -1.7792    0.0000 C   0  0  0  0  0  0  0  0  0  0  0  0
   -6.7167    0.7250    0.0000 C   0  0  0  0  0  0  0  0  0  0  0  0
   -5.8458    0.9208    0.0000 C   0  0  0  0  0  0  0  0  0  0  0  0
    3.7292   -1.6542    0.0000 C   0  0  0  0  0  0  0  0  0  0  0  0
   -0.8208    1.1833    0.0000 C   0  0  0  0  0  0  0  0  0  0  0  0
    0.6417   -2.3792    0.0000 C   0  0  0  0  0  0  0  0  0  0  0  0
    4.3250   -0.9792    0.0000 C   0  0  0  0  0  0  0  0  0  0  0  0
   -3.7583   -0.2417    0.0000 C   0  0  0  0  0  0  0  0  0  0  0  0
    4.5000    0.0958    0.0000 C   0  0  0  0  0  0  0  0  0  0  0  0
    5.0000    0.8458    0.0000 C   0  0  0  0  0  0  0  0  0  0  0  0
   -3.2625   -0.4000    0.0000 C   0  0  0  0  0  0  0  0  0  0  0  0
    4.1167   -2.0000    0.0000 C   0  0  0  0  0  0  0  0  0  0  0  0
   -6.8375    1.2333    0.0000 C   0  0  0  0  0  0  0  0  0  0  0  0
   -5.9583    1.4208    0.0000 C   0  0  0  0  0  0  0  0  0  0  0  0
    5.4375    0.5625    0.0000 C   0  0  0  0  0  0  0  0  0  0  0  0
    4.9292   -0.2000    0.0000 C   0  0  0  0  0  0  0  0  0  0  0  0
    5.4042    0.0458    0.0000 C   0  0  0  0  0  0  0  0  0  0  0  0
   -6.4417    1.5875    0.0000 C   0  0  0  0  0  0  0  0  0  0  0  0
    4.4236   -0.6341    0.0000 H   0  0  0  0  0  0  0  0  0  0  0  0
  2 14  1  0
  3  4  1  0
  4 15  1  0
  5 16  1  0
  6  2  1  0
  7 10  1  0
  8  1  1  0
  3  9  1  1
 10 21  1  0
 11  5  1  0
 12 24  1  0
 13  9  1  0
 14  1  1  0
 12 15  1  1
 16  8  1  0
 17 20  1  0
 18 17  1  0
 19 13  1  0
 20  6  1  0
 21 11  1  0
 19 22  1  6
 23 26  1  0
 24 18  1  0
 25 22  1  0
 26 40  2  0
 27  2  2  0
 28  4  2  0
 29  7  2  0
 30  8  2  0
 31 11  2  0
 32 13  2  0
 16 33  1  1
 34 17  2  0
 35 23  2  0
  3 36  1  0
 37 23  1  0
 38 25  2  0
 39 45  2  0
 40 46  1  0
 14 41  1  0
 20 42  1  1
 43 50  1  0
 44 33  1  0
 45 43  1  0
 46 43  2  0
 47 54  1  0
 19 48  1  0
 36 49  1  1
 50 61  1  0
 51 48  1  0
 52 25  1  0
 21 53  1  6
 54 42  1  0
 55 37  1  0
 56 37  2  0
 57 41  1  0
 58 36  1  0
 59 47  1  0
 41 60  1  1
 61 64  1  0
 62 44  2  0
 63 44  1  0
 64 52  1  0
 65 57  1  0
 66 55  2  0
 67 56  1  0
 68 63  2  0
 69 62  1  0
 70 68  1  0
 71 67  2  0
 69 70  2  0
  7 12  1  0
 39 26  1  0
 66 71  1  0
 14 72  1  1
M  END

> <chembl_id>
CHEMBL262285

> <chembl_pref_name>
None

$$$$

     RDKit          2D

 66 65  0  0  1  0  0  0  0  0999 V2000
    5.3792   -0.3792    0.0000 C   0  0  0  0  0  0  0  0  0  0  0  0
    3.9542   -0.3792    0.0000 N   0  0  0  0  0  0  0  0  0  0  0  0
   10.3792   -0.8000    0.0000 N   0  0  0  0  0  0  0  0  0  0  0  0
    9.6667   -0.3875    0.0000 C   0  0  0  0  0  0  0  0  0  0  0  0
    3.2500   -0.7917    0.0000 C   0  0  0  0  0  0  0  0  0  0  0  0
    7.5250   -0.8000    0.0000 C   0  0  0  0  0  0  0  0  0  0  0  0
   -1.0375   -0.8167    0.0000 C   0  0  0  0  0  0  0  0  0  0  0  0
    1.1042   -0.4000    0.0000 C   0  0  0  0  0  0  0  0  0  0  0  0
    6.0917   -0.7917    0.0000 N   0  0  0  0  0  0  0  0  0  0  0  0
    8.2417   -0.3875    0.0000 N   0  0  0  0  0  0  0  0  0  0  0  0
    1.8167   -0.8042    0.0000 N   0  0  0  0  0  0  0  0  0  0  0  0
    4.6667   -0.7917    0.0000 C   0  0  0  0  0  0  0  0  0  0  0  0
    6.8125   -0.3792    0.0000 C   0  0  0  0  0  0  0  0  0  0  0  0
   -0.3250   -0.4042    0.0000 N   0  0  0  0  0  0  0  0  0  0  0  0
   11.0917   -0.3792    0.0000 C   0  0  0  0  0  0  0  0  0  0  0  0
    6.8167    0.4458    0.0000 C   0  0  0  0  0  0  0  0  0  0  0  0
   -3.1833   -0.4167    0.0000 C   0  0  0  0  0  0  0  0  0  0  0  0
    8.9542   -0.8000    0.0000 C   0  0  0  0  0  0  0  0  0  0  0  0
    2.5292   -0.3917    0.0000 C   0  0  0  0  0  0  0  0  0  0  0  0
   11.8042   -0.7875    0.0000 C   0  0  0  0  0  0  0  0  0  0  0  0
   -2.4708   -0.8292    0.0000 N   0  0  0  0  0  0  0  0  0  0  0  0
    7.5292    0.8500    0.0000 C   0  0  0  0  0  0  0  0  0  0  0  0
   -1.7583   -0.4125    0.0000 C   0  0  0  0  0  0  0  0  0  0  0  0
   -3.8958   -0.8375    0.0000 C   0  0  0  0  0  0  0  0  0  0  0  0
    0.3917   -0.8125    0.0000 C   0  0  0  0  0  0  0  0  0  0  0  0
   -1.0500    1.6583    0.0000 C   0  0  0  0  0  0  0  0  0  0  0  0
   15.3750   -0.3417    0.0000 C   0  0  0  0  0  0  0  0  0  0  0  0
    5.3875    0.4458    0.0000 O   0  0  0  0  0  0  0  0  0  0  0  0
    3.2542   -1.6167    0.0000 O   0  0  0  0  0  0  0  0  0  0  0  0
    9.6667    0.4375    0.0000 O   0  0  0  0  0  0  0  0  0  0  0  0
    7.5250   -1.6250    0.0000 O   0  0  0  0  0  0  0  0  0  0  0  0
   -1.0333   -1.6417    0.0000 O   0  0  0  0  0  0  0  0  0  0  0  0
    1.1000    0.4250    0.0000 O   0  0  0  0  0  0  0  0  0  0  0  0
   -3.1875    0.4083    0.0000 O   0  0  0  0  0  0  0  0  0  0  0  0
   11.8125   -1.6125    0.0000 O   0  0  0  0  0  0  0  0  0  0  0  0
    8.9500   -1.6250    0.0000 C   0  0  0  0  0  0  0  0  0  0  0  0
    2.5250    0.4333    0.0000 C   0  0  0  0  0  0  0  0  0  0  0  0
    8.2417    0.4375    0.0000 O   0  0  0  0  0  0  0  0  0  0  0  0
   -1.7708    2.0625    0.0000 O   0  0  0  0  0  0  0  0  0  0  0  0
   15.3667    0.4833    0.0000 O   0  0  0  0  0  0  0  0  0  0  0  0
   -1.7583    0.4125    0.0000 C   0  0  0  0  0  0  0  0  0  0  0  0
   12.5167   -0.3667    0.0000 S   0  0  0  0  0  0  0  0  0  0  0  0
   14.6667   -0.7625    0.0000 N   0  0  0  0  0  0  0  0  0  0  0  0
    4.6667   -1.6167    0.0000 C   0  0  0  0  0  0  0  0  0  0  0  0
   -1.0458    0.8333    0.0000 C   0  0  0  0  0  0  0  0  0  0  0  0
   11.0792    0.4458    0.0000 C   0  0  0  0  0  0  0  0  0  0  0  0
   -0.3375    2.0708    0.0000 N   0  0  0  0  0  0  0  0  0  0  0  0
    7.5292    1.6750    0.0000 O   0  0  0  0  0  0  0  0  0  0  0  0
   -4.6083   -0.4292    0.0000 C   0  0  0  0  0  0  0  0  0  0  0  0
   -4.6125    0.3958    0.0000 O   0  0  0  0  0  0  0  0  0  0  0  0
    9.6667   -2.0375    0.0000 C   0  0  0  0  0  0  0  0  0  0  0  0
    3.2375    0.8583    0.0000 C   0  0  0  0  0  0  0  0  0  0  0  0
   16.0917   -0.7500    0.0000 C   0  0  0  0  0  0  0  0  0  0  0  0
    0.3917   -1.6375    0.0000 C   0  0  0  0  0  0  0  0  0  0  0  0
   13.2375   -0.7750    0.0000 C   0  0  0  0  0  0  0  0  0  0  0  0
   13.9417   -0.3542    0.0000 C   0  0  0  0  0  0  0  0  0  0  0  0
   11.7917    0.8625    0.0000 C   0  0  0  0  0  0  0  0  0  0  0  0
    3.9500   -2.0250    0.0000 C   0  0  0  0  0  0  0  0  0  0  0  0
    5.3792   -2.0292    0.0000 C   0  0  0  0  0  0  0  0  0  0  0  0
   10.3625    0.8500    0.0000 C   0  0  0  0  0  0  0  0  0  0  0  0
   -5.3208   -0.8417    0.0000 C   0  0  0  0  0  0  0  0  0  0  0  0
    3.9542    0.4458    0.0000 C   0  0  0  0  0  0  0  0  0  0  0  0
    3.2292    1.6833    0.0000 C   0  0  0  0  0  0  0  0  0  0  0  0
    9.6667   -2.8625    0.0000 C   0  0  0  0  0  0  0  0  0  0  0  0
   10.3792   -1.6250    0.0000 C   0  0  0  0  0  0  0  0  0  0  0  0
   11.7875    1.6875    0.0000 C   0  0  0  0  0  0  0  0  0  0  0  0
 12  2  1  6
  3  4  1  0
  4 18  1  0
  5  2  1  0
  6 13  1  0
  7 14  1  0
  8 11  1  0
  9  1  1  0
 10  6  1  0
 19 11  1  6
 12  1  1  0
 13  9  1  1
 14 25  1  0
 15  3  1  1
 13 16  1  0
 17 21  1  0
 18 10  1  1
 19  5  1  0
 20 15  1  0
 23 21  1  1
 22 16  1  0
 23  7  1  0
 24 17  1  0
 25  8  1  0
 26 45  1  0
 27 43  1  0
 28  1  2  0
 29  5  2  0
 30  4  2  0
 31  6  2  0
 32  7  2  0
 33  8  2  0
 34 17  2  0
 35 20  2  0
 18 36  1  0
 19 37  1  0
 38 22  2  0
 39 26  2  0
 40 27  2  0
 23 41  1  0
 42 20  1  0
 43 56  1  0
 12 44  1  0
 45 41  1  0
 15 46  1  0
 47 26  1  0
 48 22  1  0
 49 24  1  0
 49 50  1  1
 51 36  1  0
 52 37  1  0
 53 27  1  0
 25 54  1  6
 55 42  1  0
 56 55  1  0
 57 46  1  0
 58 44  1  0
 59 44  1  0
 46 60  1  1
 61 49  1  0
 62 52  1  0
 63 52  1  0
 64 51  1  0
 65 51  1  0
 66 57  1  0
M  END

> <chembl_id>
CHEMBL2371857

> <chembl_pref_name>
None

$$$$

     RDKit          2D

 12 11  0  0  0  0  0  0  0  0999 V2000
    4.9125   -1.1792    0.0000 C   0  0  0  0  0  0  0  0  0  0  0  0
    8.4292   -1.9250    0.0000 C   0  0  0  0  0  0  0  0  0  0  0  0
    4.1417   -2.3125    0.0000 N   0  0  0  0  0  0  0  0  0  0  0  0
    4.9125   -0.3792    0.0000 O   0  0  0  0  0  0  0  0  0  0  0  0
    8.3542   -2.7417    0.0000 O   0  0  0  0  0  0  0  0  0  0  0  0
    5.5792   -1.6625    0.0000 N   0  0  0  0  0  0  0  0  0  0  0  0
    7.7542   -1.4500    0.0000 S   0  0  0  0  0  0  0  0  0  0  0  0
    4.1500   -1.4500    0.0000 C   0  0  0  0  0  0  0  0  0  0  0  0
    9.1792   -1.5792    0.0000 C   0  0  0  0  0  0  0  0  0  0  0  0
    6.3292   -1.3167    0.0000 C   0  0  0  0  0  0  0  0  0  0  0  0
    7.0042   -1.7917    0.0000 C   0  0  0  0  0  0  0  0  0  0  0  0
    9.8542   -2.0542    0.0000 C   0  0  0  0  0  0  0  0  0  0  0  0
  2  7  1  0
  3  8  1  0
  4  1  2  0
  5  2  2  0
  6  1  1  0
  7 11  1  0
  8  1  1  0
  9  2  1  0
 10  6  1  0
 11 10  1  0
 12  9  1  0
M  END

> <chembl_id>
CHEMBL1179279

> <chembl_pref_name>
None

$$$$

     RDKit          2D

 64 66  0  0  1  0  0  0  0  0999 V2000
   10.0915   -2.0496    0.0000 S   0  0  0  0  0  0  0  0  0  0  0  0
   -2.4137    0.1299    0.0000 P   0  0  0  0  0  0  0  0  0  0  0  0
   -0.6256   -2.4621    0.0000 P   0  0  0  0  0  0  0  0  0  0  0  0
    0.8034   -2.4621    0.0000 P   0  0  0  0  0  0  0  0  0  0  0  0
   -3.5227   -2.3852    0.0000 O   0  0  0  0  0  0  0  0  0  0  0  0
   -2.2421   -0.6771    0.0000 O   0  0  0  0  0  0  0  0  0  0  0  0
   -3.9978   -0.3040    0.0000 O   0  0  0  0  0  0  0  0  0  0  0  0
   -1.3401   -2.0496    0.0000 O   0  0  0  0  0  0  0  0  0  0  0  0
    0.0889   -2.8746    0.0000 O   0  0  0  0  0  0  0  0  0  0  0  0
    1.5178   -2.0496    0.0000 O   0  0  0  0  0  0  0  0  0  0  0  0
   -2.5852    0.9368    0.0000 O   0  0  0  0  0  0  0  0  0  0  0  0
   -1.6067    0.3014    0.0000 O   0  0  0  0  0  0  0  0  0  0  0  0
   -3.2206   -0.0417    0.0000 O   0  0  0  0  0  0  0  0  0  0  0  0
   -1.0381   -3.1766    0.0000 O   0  0  0  0  0  0  0  0  0  0  0  0
   -0.2131   -1.7477    0.0000 O   0  0  0  0  0  0  0  0  0  0  0  0
    3.6612   -0.8121    0.0000 O   0  0  0  0  0  0  0  0  0  0  0  0
    1.2159   -3.1766    0.0000 O   0  0  0  0  0  0  0  0  0  0  0  0
    0.3909   -1.7477    0.0000 O   0  0  0  0  0  0  0  0  0  0  0  0
    4.3757   -2.8746    0.0000 O   0  0  0  0  0  0  0  0  0  0  0  0
    7.2336   -2.8746    0.0000 O   0  0  0  0  0  0  0  0  0  0  0  0
   10.8059   -0.8121    0.0000 O   0  0  0  0  0  0  0  0  0  0  0  0
   -4.8952   -1.8583    0.0000 N   0  0  0  0  0  0  0  0  0  0  0  0
   -6.1147   -2.4013    0.0000 N   0  0  0  0  0  0  0  0  0  0  0  0
   -5.3610   -0.4248    0.0000 N   0  0  0  0  0  0  0  0  0  0  0  0
   -6.7821   -0.2754    0.0000 N   0  0  0  0  0  0  0  0  0  0  0  0
   -7.6220   -1.4314    0.0000 N   0  0  0  0  0  0  0  0  0  0  0  0
    5.0902   -1.6371    0.0000 N   0  0  0  0  0  0  0  0  0  0  0  0
    7.9481   -1.6371    0.0000 N   0  0  0  0  0  0  0  0  0  0  0  0
   -4.0747   -1.7721    0.0000 C   0  0  0  0  0  0  0  0  0  0  0  0
   -5.4472   -1.2452    0.0000 C   0  0  0  0  0  0  0  0  0  0  0  0
   -3.6622   -1.0576    0.0000 C   0  0  0  0  0  0  0  0  0  0  0  0
   -2.8552   -1.2292    0.0000 C   0  0  0  0  0  0  0  0  0  0  0  0
   -2.7690   -2.0496    0.0000 C   0  0  0  0  0  0  0  0  0  0  0  0
   -6.2009   -1.5808    0.0000 C   0  0  0  0  0  0  0  0  0  0  0  0
   -5.3077   -2.5728    0.0000 C   0  0  0  0  0  0  0  0  0  0  0  0
   -6.8683   -1.0959    0.0000 C   0  0  0  0  0  0  0  0  0  0  0  0
   -2.0545   -2.4621    0.0000 C   0  0  0  0  0  0  0  0  0  0  0  0
   -6.0284    0.0602    0.0000 C   0  0  0  0  0  0  0  0  0  0  0  0
    3.6612   -1.6371    0.0000 C   0  0  0  0  0  0  0  0  0  0  0  0
    2.9468   -2.0496    0.0000 C   0  0  0  0  0  0  0  0  0  0  0  0
    4.3757   -2.0496    0.0000 C   0  0  0  0  0  0  0  0  0  0  0  0
    2.2323   -2.4621    0.0000 C   0  0  0  0  0  0  0  0  0  0  0  0
    3.3593   -2.7641    0.0000 C   0  0  0  0  0  0  0  0  0  0  0  0
    2.5343   -1.3352    0.0000 C   0  0  0  0  0  0  0  0  0  0  0  0
    5.8046   -2.0496    0.0000 C   0  0  0  0  0  0  0  0  0  0  0  0
    6.5191   -1.6371    0.0000 C   0  0  0  0  0  0  0  0  0  0  0  0
    7.2336   -2.0496    0.0000 C   0  0  0  0  0  0  0  0  0  0  0  0
    8.6625   -2.0496    0.0000 C   0  0  0  0  0  0  0  0  0  0  0  0
    9.3770   -1.6371    0.0000 C   0  0  0  0  0  0  0  0  0  0  0  0
   10.8059   -1.6371    0.0000 C   0  0  0  0  0  0  0  0  0  0  0  0
   11.5204   -2.0496    0.0000 C   0  0  0  0  0  0  0  0  0  0  0  0
   12.2349   -1.6371    0.0000 C   0  0  0  0  0  0  0  0  0  0  0  0
   12.9494   -2.0496    0.0000 C   0  0  0  0  0  0  0  0  0  0  0  0
   13.6638   -1.6371    0.0000 C   0  0  0  0  0  0  0  0  0  0  0  0
   13.6638   -0.8121    0.0000 C   0  0  0  0  0  0  0  0  0  0  0  0
   14.3783   -0.3996    0.0000 C   0  0  0  0  0  0  0  0  0  0  0  0
   14.3783    0.4254    0.0000 C   0  0  0  0  0  0  0  0  0  0  0  0
   15.0928    0.8379    0.0000 C   0  0  0  0  0  0  0  0  0  0  0  0
   15.0928    1.6629    0.0000 C   0  0  0  0  0  0  0  0  0  0  0  0
   15.8072    2.0754    0.0000 C   0  0  0  0  0  0  0  0  0  0  0  0
   15.8072    2.9004    0.0000 C   0  0  0  0  0  0  0  0  0  0  0  0
   16.5217    3.3129    0.0000 C   0  0  0  0  0  0  0  0  0  0  0  0
   16.5217    4.1379    0.0000 C   0  0  0  0  0  0  0  0  0  0  0  0
    2.9468   -1.2246    0.0000 H   0  0  0  0  0  0  0  0  0  0  0  0
  1 49  1  0
  1 50  1  0
  2  6  1  0
  2 11  2  0
  2 12  1  0
  2 13  1  0
  3  8  1  0
  3  9  1  0
  3 14  2  0
  3 15  1  0
  4  9  1  0
  4 10  1  0
  4 17  2  0
  4 18  1  0
  5 29  1  0
  5 33  1  0
  6 32  1  0
  7 31  1  0
  8 37  1  0
 10 42  1  0
 39 16  1  6
 19 41  2  0
 20 47  2  0
 21 50  2  0
 22 29  1  0
 22 30  1  0
 22 35  1  0
 23 34  1  0
 23 35  2  0
 24 30  1  0
 24 38  2  0
 25 36  2  0
 25 38  1  0
 26 36  1  0
 27 41  1  0
 27 45  1  0
 28 47  1  0
 28 48  1  0
 29 31  1  0
 30 34  2  0
 31 32  1  0
 32 33  1  0
 33 37  1  0
 34 36  1  0
 39 40  1  0
 39 41  1  0
 39 64  1  1
 40 42  1  0
 40 43  1  0
 40 44  1  0
 45 46  1  0
 46 47  1  0
 48 49  1  0
 50 51  1  0
 51 52  1  0
 52 53  2  0
 53 54  1  0
 54 55  1  0
 55 56  1  0
 56 57  1  0
 57 58  1  0
 58 59  1  0
 59 60  1  0
 60 61  1  0
 61 62  1  0
 62 63  1  0
M  END

> <chembl_id>
CHEMBL1990611

> <chembl_pref_name>
None

$$$$

     RDKit          2D

 19 17  0  0  0  0  0  0  0  0999 V2000
    4.8167   -1.5917    0.0000 C   0  0  0  0  0  0  0  0  0  0  0  0
    8.3292   -2.3292    0.0000 C   0  0  0  0  0  0  0  0  0  0  0  0
    4.0417   -2.7167    0.0000 N   0  0  0  0  0  0  0  0  0  0  0  0
    4.8167   -0.7875    0.0000 O   0  0  0  0  0  0  0  0  0  0  0  0
    8.2542   -3.1542    0.0000 O   0  0  0  0  0  0  0  0  0  0  0  0
    5.4875   -2.0667    0.0000 N   0  0  0  0  0  0  0  0  0  0  0  0
    7.6625   -1.8542    0.0000 S   0  0  0  0  0  0  0  0  0  0  0  0
    4.0542   -1.8542    0.0000 C   0  0  0  0  0  0  0  0  0  0  0  0
    9.7542   -2.4667    0.0000 Cl  0  0  0  0  0  0  0  0  0  0  0  0
    9.0792   -1.9875    0.0000 C   0  0  0  0  0  0  0  0  0  0  0  0
    6.2375   -1.7250    0.0000 C   0  0  0  0  0  0  0  0  0  0  0  0
    6.9125   -2.2000    0.0000 C   0  0  0  0  0  0  0  0  0  0  0  0
    4.6125   -5.6542    0.0000 C   0  0  0  0  0  0  0  0  0  0  0  0
    4.6125   -6.4792    0.0000 C   0  0  0  0  0  0  0  0  0  0  0  0
    5.3292   -6.8917    0.0000 O   0  0  0  0  0  0  0  0  0  0  0  0
    3.9000   -6.8917    0.0000 O   0  0  0  0  0  0  0  0  0  0  0  0
    5.2250   -5.1625    0.0000 F   0  0  0  0  0  0  0  0  0  0  0  0
    4.0042   -5.1625    0.0000 F   0  0  0  0  0  0  0  0  0  0  0  0
    4.6125   -4.9750    0.0000 F   0  0  0  0  0  0  0  0  0  0  0  0
  2  7  1  0
  3  8  1  0
  4  1  2  0
  5  2  2  0
  6  1  1  0
  7 12  1  0
  8  1  1  0
  9 10  1  0
 10  2  1  0
 11  6  1  0
 12 11  1  0
 14 13  1  0
 15 14  1  0
 16 14  2  0
 17 13  1  0
 18 13  1  0
 19 13  1  0
M  END

> <chembl_id>
CHEMBL68633

> <chembl_pref_name>
None

$$$$

     RDKit          2D

 66 65  0  0  1  0  0  0  0  0999 V2000
    5.3792   -0.3792    0.0000 C   0  0  0  0  0  0  0  0  0  0  0  0
    3.9542   -0.3792    0.0000 N   0  0  0  0  0  0  0  0  0  0  0  0
   10.3792   -0.8000    0.0000 N   0  0  0  0  0  0  0  0  0  0  0  0
    9.6667   -0.3875    0.0000 C   0  0  0  0  0  0  0  0  0  0  0  0
    3.2500   -0.7917    0.0000 C   0  0  0  0  0  0  0  0  0  0  0  0
    7.5250   -0.8000    0.0000 C   0  0  0  0  0  0  0  0  0  0  0  0
    1.1042   -0.4000    0.0000 C   0  0  0  0  0  0  0  0  0  0  0  0
   -1.0375   -0.8167    0.0000 C   0  0  0  0  0  0  0  0  0  0  0  0
    6.0917   -0.7917    0.0000 N   0  0  0  0  0  0  0  0  0  0  0  0
    8.2417   -0.3875    0.0000 N   0  0  0  0  0  0  0  0  0  0  0  0
   -0.3250   -0.4042    0.0000 N   0  0  0  0  0  0  0  0  0  0  0  0
    4.6667   -0.7917    0.0000 C   0  0  0  0  0  0  0  0  0  0  0  0
    6.8125   -0.3792    0.0000 C   0  0  0  0  0  0  0  0  0  0  0  0
    1.8167   -0.8042    0.0000 N   0  0  0  0  0  0  0  0  0  0  0  0
   11.0917   -0.3792    0.0000 C   0  0  0  0  0  0  0  0  0  0  0  0
    6.8167    0.4458    0.0000 C   0  0  0  0  0  0  0  0  0  0  0  0
   -3.1833   -0.4167    0.0000 C   0  0  0  0  0  0  0  0  0  0  0  0
    8.9542   -0.8000    0.0000 C   0  0  0  0  0  0  0  0  0  0  0  0
    0.3917   -0.8125    0.0000 C   0  0  0  0  0  0  0  0  0  0  0  0
   11.8042   -0.7875    0.0000 C   0  0  0  0  0  0  0  0  0  0  0  0
   -2.4708   -0.8292    0.0000 N   0  0  0  0  0  0  0  0  0  0  0  0
    7.5292    0.8500    0.0000 C   0  0  0  0  0  0  0  0  0  0  0  0
   -1.7583   -0.4125    0.0000 C   0  0  0  0  0  0  0  0  0  0  0  0
   -3.8958   -0.8375    0.0000 C   0  0  0  0  0  0  0  0  0  0  0  0
    2.5292   -0.3917    0.0000 C   0  0  0  0  0  0  0  0  0  0  0  0
   -1.0500    1.6583    0.0000 C   0  0  0  0  0  0  0  0  0  0  0  0
   15.3750   -0.3417    0.0000 C   0  0  0  0  0  0  0  0  0  0  0  0
    5.3875    0.4458    0.0000 O   0  0  0  0  0  0  0  0  0  0  0  0
    9.6667    0.4375    0.0000 O   0  0  0  0  0  0  0  0  0  0  0  0
    3.2542   -1.6167    0.0000 O   0  0  0  0  0  0  0  0  0  0  0  0
    1.1000    0.4250    0.0000 O   0  0  0  0  0  0  0  0  0  0  0  0
    7.5250   -1.6250    0.0000 O   0  0  0  0  0  0  0  0  0  0  0  0
   -1.0333   -1.6417    0.0000 O   0  0  0  0  0  0  0  0  0  0  0  0
   -3.1875    0.4083    0.0000 O   0  0  0  0  0  0  0  0  0  0  0  0
   11.8125   -1.6125    0.0000 O   0  0  0  0  0  0  0  0  0  0  0  0
    8.9500   -1.6250    0.0000 C   0  0  0  0  0  0  0  0  0  0  0  0
    0.3917   -1.6375    0.0000 C   0  0  0  0  0  0  0  0  0  0  0  0
    8.2417    0.4375    0.0000 O   0  0  0  0  0  0  0  0  0  0  0  0
   -1.7708    2.0625    0.0000 O   0  0  0  0  0  0  0  0  0  0  0  0
   15.3667    0.4833    0.0000 O   0  0  0  0  0  0  0  0  0  0  0  0
   -1.7583    0.4125    0.0000 C   0  0  0  0  0  0  0  0  0  0  0  0
   12.5167   -0.3667    0.0000 S   0  0  0  0  0  0  0  0  0  0  0  0
   14.6667   -0.7625    0.0000 N   0  0  0  0  0  0  0  0  0  0  0  0
    4.6667   -1.6167    0.0000 C   0  0  0  0  0  0  0  0  0  0  0  0
   -1.0458    0.8333    0.0000 C   0  0  0  0  0  0  0  0  0  0  0  0
   11.0792    0.4458    0.0000 C   0  0  0  0  0  0  0  0  0  0  0  0
   -0.3375    2.0708    0.0000 N   0  0  0  0  0  0  0  0  0  0  0  0
    7.5292    1.6750    0.0000 O   0  0  0  0  0  0  0  0  0  0  0  0
   -4.6083   -0.4292    0.0000 C   0  0  0  0  0  0  0  0  0  0  0  0
   -4.6125    0.3958    0.0000 O   0  0  0  0  0  0  0  0  0  0  0  0
    9.6667   -2.0375    0.0000 C   0  0  0  0  0  0  0  0  0  0  0  0
    1.1125   -2.0500    0.0000 C   0  0  0  0  0  0  0  0  0  0  0  0
   16.0917   -0.7500    0.0000 C   0  0  0  0  0  0  0  0  0  0  0  0
    2.5250    0.4333    0.0000 C   0  0  0  0  0  0  0  0  0  0  0  0
   13.2375   -0.7750    0.0000 C   0  0  0  0  0  0  0  0  0  0  0  0
   13.9417   -0.3542    0.0000 C   0  0  0  0  0  0  0  0  0  0  0  0
   11.7917    0.8625    0.0000 C   0  0  0  0  0  0  0  0  0  0  0  0
    5.3792   -2.0292    0.0000 C   0  0  0  0  0  0  0  0  0  0  0  0
    3.9500   -2.0250    0.0000 C   0  0  0  0  0  0  0  0  0  0  0  0
   10.3625    0.8500    0.0000 C   0  0  0  0  0  0  0  0  0  0  0  0
   -5.3208   -0.8417    0.0000 C   0  0  0  0  0  0  0  0  0  0  0  0
   10.3792   -1.6250    0.0000 C   0  0  0  0  0  0  0  0  0  0  0  0
    9.6667   -2.8625    0.0000 C   0  0  0  0  0  0  0  0  0  0  0  0
    1.1167   -2.8750    0.0000 C   0  0  0  0  0  0  0  0  0  0  0  0
    1.8250   -1.6292    0.0000 C   0  0  0  0  0  0  0  0  0  0  0  0
   11.7875    1.6875    0.0000 C   0  0  0  0  0  0  0  0  0  0  0  0
 12  2  1  6
  3  4  1  0
  4 18  1  0
  5  2  1  0
  6 13  1  0
  7 14  1  0
  8 11  1  0
  9  1  1  0
 10  6  1  0
 19 11  1  6
 12  1  1  0
 13  9  1  1
 14 25  1  0
 15  3  1  1
 13 16  1  0
 17 21  1  0
 18 10  1  1
 19  7  1  0
 20 15  1  0
 23 21  1  1
 22 16  1  0
 23  8  1  0
 24 17  1  0
 25  5  1  0
 26 45  1  0
 27 43  1  0
 28  1  2  0
 29  4  2  0
 30  5  2  0
 31  7  2  0
 32  6  2  0
 33  8  2  0
 34 17  2  0
 35 20  2  0
 18 36  1  0
 19 37  1  0
 38 22  2  0
 39 26  2  0
 40 27  2  0
 23 41  1  0
 42 20  1  0
 43 56  1  0
 12 44  1  0
 45 41  1  0
 15 46  1  0
 47 26  1  0
 48 22  1  0
 49 24  1  0
 49 50  1  1
 51 36  1  0
 52 37  1  0
 53 27  1  0
 25 54  1  6
 55 42  1  0
 56 55  1  0
 57 46  1  0
 58 44  1  0
 59 44  1  0
 46 60  1  1
 61 49  1  0
 62 51  1  0
 63 51  1  0
 64 52  1  0
 65 52  1  0
 66 57  1  0
M  END

> <chembl_id>
CHEMBL2371858

> <chembl_pref_name>
None

$$$$

     RDKit          2D

 28 28  0  0  0  0  0  0  0  0999 V2000
   12.6945    0.5562    0.0000 C   0  0  0  0  0  0  0  0  0  0  0  0
   12.6931   -0.2714    0.0000 C   0  0  0  0  0  0  0  0  0  0  0  0
   13.4061   -0.6843    0.0000 C   0  0  0  0  0  0  0  0  0  0  0  0
   14.1255   -0.2709    0.0000 C   0  0  0  0  0  0  0  0  0  0  0  0
   14.1223    0.5602    0.0000 C   0  0  0  0  0  0  0  0  0  0  0  0
   13.4041    0.9690    0.0000 C   0  0  0  0  0  0  0  0  0  0  0  0
   11.9812    0.9722    0.0000 O   0  0  0  0  0  0  0  0  0  0  0  0
   14.8403   -0.6828    0.0000 C   0  0  0  0  0  0  0  0  0  0  0  0
   15.5544   -0.2696    0.0000 C   0  0  0  0  0  0  0  0  0  0  0  0
   16.2693   -0.6815    0.0000 C   0  0  0  0  0  0  0  0  0  0  0  0
   16.9834   -0.2683    0.0000 S   0  0  0  0  0  0  0  0  0  0  0  0
   16.2701   -1.5065    0.0000 O   0  0  0  0  0  0  0  0  0  0  0  0
   17.6982   -0.6801    0.0000 C   0  0  0  0  0  0  0  0  0  0  0  0
   18.4124   -0.2670    0.0000 C   0  0  0  0  0  0  0  0  0  0  0  0
   19.1273   -0.6788    0.0000 N   0  0  0  0  0  0  0  0  0  0  0  0
   19.8413   -0.2657    0.0000 C   0  0  0  0  0  0  0  0  0  0  0  0
   20.5562   -0.6775    0.0000 C   0  0  0  0  0  0  0  0  0  0  0  0
   19.8406    0.5594    0.0000 O   0  0  0  0  0  0  0  0  0  0  0  0
   10.5536    1.0348    0.0000 C   0  0  0  0  0  0  0  0  0  0  0  0
    9.8218    0.6540    0.0000 C   0  0  0  0  0  0  0  0  0  0  0  0
    9.7853   -0.1700    0.0000 C   0  0  0  0  0  0  0  0  0  0  0  0
    9.1261    1.0972    0.0000 C   0  0  0  0  0  0  0  0  0  0  0  0
    8.3943    0.7163    0.0000 C   0  0  0  0  0  0  0  0  0  0  0  0
    8.3580   -0.1076    0.0000 C   0  0  0  0  0  0  0  0  0  0  0  0
    7.6261   -0.4884    0.0000 C   0  0  0  0  0  0  0  0  0  0  0  0
    7.5897   -1.3123    0.0000 C   0  0  0  0  0  0  0  0  0  0  0  0
    6.9306   -0.0452    0.0000 C   0  0  0  0  0  0  0  0  0  0  0  0
   11.2493    0.5914    0.0000 C   0  0  0  0  0  0  0  0  0  0  0  0
 13 14  1  0
  1  7  1  0
 14 15  1  0
  3  4  2  0
 15 16  1  0
  4  8  1  0
 16 17  1  0
 16 18  2  0
  8  9  2  0
  4  5  1  0
  9 10  1  0
  2  3  1  0
 10 11  1  0
  5  6  2  0
 10 12  2  0
  6  1  1  0
 11 13  1  0
 19 20  2  0
 20 21  1  0
 20 22  1  0
 22 23  1  0
 23 24  1  0
 24 25  2  0
 25 26  1  0
 25 27  1  0
  1  2  2  0
 19 28  1  0
 28  7  1  0
M  END

> <chembl_id>
CHEMBL473059

> <chembl_pref_name>
None

$$$$

     RDKit          2D

 20 20  0  0  0  0  0  0  0  0999 V2000
    7.1434  -12.9503    0.0000 C   0  0  0  0  0  0  0  0  0  0  0  0
    7.1422  -13.7779    0.0000 C   0  0  0  0  0  0  0  0  0  0  0  0
    7.8551  -14.1909    0.0000 C   0  0  0  0  0  0  0  0  0  0  0  0
    8.5745  -13.7774    0.0000 C   0  0  0  0  0  0  0  0  0  0  0  0
    8.5713  -12.9464    0.0000 C   0  0  0  0  0  0  0  0  0  0  0  0
    7.8531  -12.5376    0.0000 C   0  0  0  0  0  0  0  0  0  0  0  0
    6.4338  -12.5284    0.0000 O   0  0  0  0  0  0  0  0  0  0  0  0
    9.2892  -14.1892    0.0000 C   0  0  0  0  0  0  0  0  0  0  0  0
   10.0033  -13.7761    0.0000 C   0  0  0  0  0  0  0  0  0  0  0  0
   10.7182  -14.1879    0.0000 C   0  0  0  0  0  0  0  0  0  0  0  0
   11.4322  -13.7749    0.0000 S   0  0  0  0  0  0  0  0  0  0  0  0
   10.7188  -15.0129    0.0000 O   0  0  0  0  0  0  0  0  0  0  0  0
   12.1470  -14.1867    0.0000 C   0  0  0  0  0  0  0  0  0  0  0  0
   12.8611  -13.7735    0.0000 C   0  0  0  0  0  0  0  0  0  0  0  0
   13.5759  -14.1854    0.0000 N   0  0  0  0  0  0  0  0  0  0  0  0
   14.2900  -13.7722    0.0000 C   0  0  0  0  0  0  0  0  0  0  0  0
   15.0048  -14.1840    0.0000 C   0  0  0  0  0  0  0  0  0  0  0  0
   14.2892  -12.9472    0.0000 O   0  0  0  0  0  0  0  0  0  0  0  0
    7.8493  -11.7127    0.0000 O   0  0  0  0  0  0  0  0  0  0  0  0
    8.5618  -11.2968    0.0000 C   0  0  0  0  0  0  0  0  0  0  0  0
  9 10  1  0
  2  3  1  0
 10 11  1  0
  5  6  2  0
 10 12  2  0
  6  1  1  0
 11 13  1  0
  1  2  2  0
 13 14  1  0
  1  7  1  0
 14 15  1  0
  3  4  2  0
 15 16  1  0
  4  8  1  0
 16 17  1  0
 16 18  2  0
  8  9  2  0
  6 19  1  0
  4  5  1  0
 19 20  1  0
M  END

> <chembl_id>
CHEMBL175785

> <chembl_pref_name>
None

$$$$

     RDKit          2D

 19 17  0  0  0  0  0  0  0  0999 V2000
   19.3999    0.3750    0.0000 Cl  0  0  0  0  0  0  0  0  0  0  0  0
    3.9000    0.7500    0.0000 C   0  0  0  0  0  0  0  0  0  0  0  0
    5.2000    0.0000    0.0000 C   0  0  0  0  0  0  0  0  0  0  0  0
    6.5000    0.7500    0.0000 C   0  0  0  0  0  0  0  0  0  0  0  0
    7.7999    0.0000    0.0000 C   0  0  0  0  0  0  0  0  0  0  0  0
    5.2000   -1.2000    0.0000 N   0  0  0  0  0  0  0  0  0  0  0  0
    3.9000    1.9500    0.0000 O   0  0  0  0  0  0  0  0  0  0  0  0
    2.6000    0.0000    0.0000 O   0  0  0  0  0  0  0  0  0  0  0  0
    1.3000    0.7500    0.0000 C   0  0  0  0  0  0  0  0  0  0  0  0
    0.2606    0.1503    0.0000 C   0  0  0  0  0  0  0  0  0  0  0  0
    9.0999    0.7500    0.0000 C   0  0  0  0  0  0  0  0  0  0  0  0
   10.3999    0.0000    0.0000 N   0  0  0  0  0  0  0  0  0  0  0  0
    9.0999    1.9500    0.0000 O   0  0  0  0  0  0  0  0  0  0  0  0
   11.6999    0.7500    0.0000 C   0  0  0  0  0  0  0  0  0  0  0  0
   12.9999    0.0000    0.0000 C   0  0  0  0  0  0  0  0  0  0  0  0
   14.2999    0.7500    0.0000 S   0  0  0  0  0  0  0  0  0  0  0  0
   15.5999    0.0000    0.0000 C   0  0  0  0  0  0  0  0  0  0  0  0
   16.6393    0.5997    0.0000 O   0  0  0  0  0  0  0  0  0  0  0  0
   15.5999   -1.2000    0.0000 C   0  0  0  0  0  0  0  0  0  0  0  0
  2  3  1  0
  3  4  1  0
  4  5  1  0
  3  6  1  6
  2  7  2  0
  9 10  1  0
  8  9  1  0
  2  8  1  0
 11 12  1  0
 11 13  2  0
 14 15  1  0
 17 18  2  0
 17 19  1  0
 16 17  1  0
 15 16  1  0
 12 14  1  0
  5 11  1  0
M  END

> <chembl_id>
CHEMBL3763956

> <chembl_pref_name>
None

$$$$

     RDKit          2D

 51 53  0  0  0  0  0  0  0  0999 V2000
    3.6087  -17.8039    0.0000 C   0  0  0  0  0  0  0  0  0  0  0  0
    6.4643  -16.1540    0.0000 C   0  0  0  0  0  0  0  0  0  0  0  0
    7.1824  -14.0894    0.0000 O   0  0  0  0  0  0  0  0  0  0  0  0
    6.3619  -16.6511    0.0000 O   0  0  0  0  0  0  0  0  0  0  0  0
    5.7505  -17.3893    0.0000 C   0  0  0  0  0  0  0  0  0  0  0  0
    7.1824  -19.8642    0.0000 C   0  0  0  0  0  0  0  0  0  0  0  0
    7.8962  -18.6289    0.0000 C   0  0  0  0  0  0  0  0  0  0  0  0
    6.4643  -17.8039    0.0000 C   0  0  0  0  0  0  0  0  0  0  0  0
    7.8962  -16.1540    0.0000 C   0  0  0  0  0  0  0  0  0  0  0  0
    4.3227  -14.0894    0.0000 N   0  0  0  0  0  0  0  0  0  0  0  0
    7.1824  -16.5643    0.0000 C   0  0  0  0  0  0  0  0  0  0  0  0
    4.3227  -19.0393    0.0000 C   0  0  0  0  0  0  0  0  0  0  0  0
    4.3227  -16.5643    0.0000 C   0  0  0  0  0  0  0  0  0  0  0  0
    8.6102  -16.5643    0.0000 C   0  0  0  0  0  0  0  0  0  0  0  0
    5.7505  -16.5643    0.0000 O   0  0  0  0  0  0  0  0  0  0  0  0
    5.7505  -14.9144    0.0000 N   0  0  0  0  0  0  0  0  0  0  0  0
   10.0379  -19.8642    0.0000 C   0  0  0  0  0  0  0  0  0  0  0  0
    3.6087  -16.1540    0.0000 S   0  0  0  0  0  0  0  0  0  0  0  0
    4.3227  -17.3893    0.0000 C   0  0  0  0  0  0  0  0  0  0  0  0
    7.8962  -15.3290    0.0000 N   0  0  0  0  0  0  0  0  0  0  0  0
    8.6102  -19.0392    0.0000 C   0  0  0  0  0  0  0  0  0  0  0  0
    6.4643  -15.3290    0.0000 C   0  0  0  0  0  0  0  0  0  0  0  0
    5.5239  -15.9956    0.0000 O   0  0  0  0  0  0  0  0  0  0  0  0
   10.0379  -16.5643    0.0000 C   0  0  0  0  0  0  0  0  0  0  0  0
    9.3240  -20.2788    0.0000 O   0  0  0  0  0  0  0  0  0  0  0  0
    4.3227  -14.9144    0.0000 C   0  0  0  0  0  0  0  0  0  0  0  0
    5.0365  -16.1540    0.0000 O   0  0  0  0  0  0  0  0  0  0  0  0
    9.3240  -16.1540    0.0000 O   0  0  0  0  0  0  0  0  0  0  0  0
    4.3227  -19.8642    0.0000 C   0  0  0  0  0  0  0  0  0  0  0  0
    2.8949  -14.0894    0.0000 C   0  0  0  0  0  0  0  0  0  0  0  0
    3.6087  -18.6289    0.0000 C   0  0  0  0  0  0  0  0  0  0  0  0
    8.6102  -19.8642    0.0000 C   0  0  0  0  0  0  0  0  0  0  0  0
    7.1824  -17.3893    0.0000 N   0  0  0  0  0  0  0  0  0  0  0  0
    5.0365  -17.8039    0.0000 N   0  0  0  0  0  0  0  0  0  0  0  0
    3.6087  -15.3290    0.0000 C   0  0  0  0  0  0  0  0  0  0  0  0
    2.8949  -19.0393    0.0000 C   0  0  0  0  0  0  0  0  0  0  0  0
    3.6087  -20.2788    0.0000 C   0  0  0  0  0  0  0  0  0  0  0  0
    6.4643  -18.6289    0.0000 C   0  0  0  0  0  0  0  0  0  0  0  0
    7.1824  -19.0392    0.0000 C   0  0  0  0  0  0  0  0  0  0  0  0
    7.8962  -20.2788    0.0000 C   0  0  0  0  0  0  0  0  0  0  0  0
    2.8949  -19.8642    0.0000 C   0  0  0  0  0  0  0  0  0  0  0  0
    3.6087  -13.6790    0.0000 C   0  0  0  0  0  0  0  0  0  0  0  0
    5.0365  -15.3290    0.0000 C   0  0  0  0  0  0  0  0  0  0  0  0
    3.6087  -12.8541    0.0000 O   0  0  0  0  0  0  0  0  0  0  0  0
    7.1824  -14.9144    0.0000 C   0  0  0  0  0  0  0  0  0  0  0  0
   10.0394  -17.3856    0.0000 C   0  0  0  0  0  0  0  0  0  0  0  0
   10.7484  -16.1524    0.0000 C   0  0  0  0  0  0  0  0  0  0  0  0
   10.7470  -16.9730    0.0000 C   0  0  0  0  0  0  0  0  0  0  0  0
   10.7502  -20.2731    0.0000 C   0  0  0  0  0  0  0  0  0  0  0  0
   10.0359  -19.0429    0.0000 C   0  0  0  0  0  0  0  0  0  0  0  0
   10.7470  -19.4493    0.0000 C   0  0  0  0  0  0  0  0  0  0  0  0
 34  5  1  0
 31 12  2  0
 43 16  1  0
 16 22  1  0
 32 25  1  0
  7 21  1  0
 33 11  1  0
  8 38  1  1
 21 32  2  0
 19 34  1  0
 13 19  1  0
 13 18  1  0
 43 23  2  0
 26 43  1  0
 41 36  2  0
 40  6  2  0
 18 35  1  0
 31 36  1  0
 32 40  1  0
 38 39  1  0
  5 15  2  0
 27 13  2  0
 11  4  2  0
 39  7  2  0
 19  1  1  1
 29 37  2  0
 25 17  1  0
 37 41  1  0
 22  2  1  6
 39  6  1  0
  9 14  1  1
 26 10  1  6
 11  9  1  0
 42 30  1  0
  8 33  1  0
  5  8  1  0
 12 29  1  0
  1 31  1  0
 20 45  1  0
 42 44  2  0
 35 26  1  0
 22 45  1  0
 45  3  2  0
 10 42  1  0
 14 28  1  0
 28 24  1  0
  9 20  1  0
 24 46  1  0
 24 47  1  0
 24 48  1  0
 17 49  1  0
 17 50  1  0
 17 51  1  0
M  END

> <chembl_id>
CHEMBL3975445

> <chembl_pref_name>
None

$$$$

     RDKit          2D

 48 49  0  0  0  0  0  0  0  0999 V2000
   22.5522  -19.7248    0.0000 C   0  0  0  0  0  0  0  0  0  0  0  0
   21.1201  -20.5498    0.0000 C   0  0  0  0  0  0  0  0  0  0  0  0
   21.8342  -19.3102    0.0000 C   0  0  0  0  0  0  0  0  0  0  0  0
   23.9802  -18.0746    0.0000 C   0  0  0  0  0  0  0  0  0  0  0  0
   24.6942  -16.0099    0.0000 N   0  0  0  0  0  0  0  0  0  0  0  0
   24.6942  -19.3102    0.0000 C   0  0  0  0  0  0  0  0  0  0  0  0
   23.2662  -14.3597    0.0000 C   0  0  0  0  0  0  0  0  0  0  0  0
   21.8342  -16.8349    0.0000 N   0  0  0  0  0  0  0  0  0  0  0  0
   24.6942  -16.8349    0.0000 C   0  0  0  0  0  0  0  0  0  0  0  0
   21.1201  -19.7248    0.0000 C   0  0  0  0  0  0  0  0  0  0  0  0
   25.4082  -18.0746    0.0000 N   0  0  0  0  0  0  0  0  0  0  0  0
   24.6942  -18.4851    0.0000 C   0  0  0  0  0  0  0  0  0  0  0  0
   23.9802  -14.7743    0.0000 C   0  0  0  0  0  0  0  0  0  0  0  0
   24.6942  -13.5346    0.0000 C   0  0  0  0  0  0  0  0  0  0  0  0
   22.5522  -17.2495    0.0000 C   0  0  0  0  0  0  0  0  0  0  0  0
   25.4082  -20.5498    0.0000 C   0  0  0  0  0  0  0  0  0  0  0  0
   23.2662  -18.4851    0.0000 N   0  0  0  0  0  0  0  0  0  0  0  0
   22.5522  -20.5498    0.0000 C   0  0  0  0  0  0  0  0  0  0  0  0
   19.6922  -15.5994    0.0000 C   0  0  0  0  0  0  0  0  0  0  0  0
   23.2662  -16.0099    0.0000 O   0  0  0  0  0  0  0  0  0  0  0  0
   22.5522  -22.2000    0.0000 C   0  0  0  0  0  0  0  0  0  0  0  0
   23.9802  -17.2495    0.0000 C   0  0  0  0  0  0  0  0  0  0  0  0
   21.1201  -15.5994    0.0000 C   0  0  0  0  0  0  0  0  0  0  0  0
   25.4082  -19.7248    0.0000 O   0  0  0  0  0  0  0  0  0  0  0  0
   21.8342  -18.4851    0.0000 C   0  0  0  0  0  0  0  0  0  0  0  0
   26.1222  -16.8349    0.0000 O   0  0  0  0  0  0  0  0  0  0  0  0
   25.4082  -17.2495    0.0000 C   0  0  0  0  0  0  0  0  0  0  0  0
   23.9802  -15.5994    0.0000 C   0  0  0  0  0  0  0  0  0  0  0  0
   22.5522  -15.5994    0.0000 C   0  0  0  0  0  0  0  0  0  0  0  0
   25.4082  -13.1242    0.0000 O   0  0  0  0  0  0  0  0  0  0  0  0
   21.8342  -16.0099    0.0000 C   0  0  0  0  0  0  0  0  0  0  0  0
   20.4062  -16.8349    0.0000 C   0  0  0  0  0  0  0  0  0  0  0  0
   22.5522  -18.0746    0.0000 C   0  0  0  0  0  0  0  0  0  0  0  0
   23.3455  -17.5258    0.0000 O   0  0  0  0  0  0  0  0  0  0  0  0
   21.8342  -21.7854    0.0000 O   0  0  0  0  0  0  0  0  0  0  0  0
   21.8342  -20.9603    0.0000 C   0  0  0  0  0  0  0  0  0  0  0  0
   20.4062  -16.0099    0.0000 C   0  0  0  0  0  0  0  0  0  0  0  0
   23.2662  -16.8349    0.0000 O   0  0  0  0  0  0  0  0  0  0  0  0
   24.6942  -14.3597    0.0000 N   0  0  0  0  0  0  0  0  0  0  0  0
   23.9802  -13.1242    0.0000 C   0  0  0  0  0  0  0  0  0  0  0  0
   22.5522  -14.7743    0.0000 S   0  0  0  0  0  0  0  0  0  0  0  0
   23.6430  -16.3528    0.0000 O   0  0  0  0  0  0  0  0  0  0  0  0
   22.5522  -23.0214    0.0000 C   0  0  0  0  0  0  0  0  0  0  0  0
   23.2635  -21.7893    0.0000 C   0  0  0  0  0  0  0  0  0  0  0  0
   23.2598  -22.6085    0.0000 C   0  0  0  0  0  0  0  0  0  0  0  0
   24.6968  -20.9605    0.0000 C   0  0  0  0  0  0  0  0  0  0  0  0
   26.1195  -20.9605    0.0000 C   0  0  0  0  0  0  0  0  0  0  0  0
   25.4003  -21.3682    0.0000 C   0  0  0  0  0  0  0  0  0  0  0  0
 11 27  1  0
 15 33  1  0
 29 41  1  0
 24 16  1  0
 39 14  1  0
  1 18  1  0
 41  7  1  0
 18 36  2  0
 31 23  1  1
  9 22  1  6
 13 28  1  0
  9 27  1  0
 31  8  1  0
 14 40  1  0
 33 17  1  0
  7 13  1  0
 20 29  2  0
 17  4  1  0
  8 15  1  0
 37 19  1  0
  3  1  2  0
  6 24  1  0
  3 10  1  0
 35 21  1  0
  2 10  2  0
 37 32  1  0
 33 25  1  1
  4 34  2  0
 12 11  1  0
 12  6  1  1
 36  2  1  0
 27 26  2  0
  5  9  1  0
 29 31  1  0
 13 39  1  6
 36 35  1  0
 25  3  1  0
 23 37  1  0
 15 38  2  0
  4 12  1  0
 14 30  2  0
 28 42  2  0
 28  5  1  0
 21 43  1  0
 21 44  1  0
 21 45  1  0
 16 46  1  0
 16 47  1  0
 16 48  1  0
M  END

> <chembl_id>
CHEMBL3966959

> <chembl_pref_name>
None

$$$$

     RDKit          2D

 66 67  0  0  0  0  0  0  0  0999 V2000
    0.5583   -6.7750    0.0000 Na  0  0  0  0  0 15  0  0  0  0  0  0
   -2.1125   -5.6875    0.0000 N   0  0  0  0  0  0  0  0  0  0  0  0
   -1.8750   -5.1917    0.0000 C   0  0  0  0  0  0  0  0  0  0  0  0
   -2.6792   -5.8000    0.0000 C   0  0  0  0  0  0  0  0  0  0  0  0
   -2.7375   -6.3375    0.0000 C   0  0  0  0  0  0  0  0  0  0  0  0
   -2.1667   -4.7208    0.0000 C   0  0  0  0  0  0  0  0  0  0  0  0
   -1.7792   -4.3167    0.0000 C   0  0  0  0  0  0  0  0  0  0  0  0
   -2.2083   -6.5583    0.0000 N   0  0  0  0  0  0  0  0  0  0  0  0
   -1.8250   -6.1542    0.0000 C   0  0  0  0  0  0  0  0  0  0  0  0
   -1.3125   -5.0792    0.0000 O   0  0  0  0  0  0  0  0  0  0  0  0
    0.2500   -4.2667    0.0000 P   0  0  0  0  0  0  0  0  0  0  0  0
    1.2500   -4.2667    0.0000 P   0  0  0  0  0  0  0  0  0  0  0  0
    0.7500   -3.9958    0.0000 O   0  0  0  0  0  0  0  0  0  0  0  0
   -1.2500   -4.5375    0.0000 C   0  0  0  0  0  0  0  0  0  0  0  0
   -2.4500   -3.6167    0.0000 P   0  0  0  0  0  0  0  0  0  0  0  0
   -3.2667   -6.5583    0.0000 C   0  0  0  0  0  0  0  0  0  0  0  0
   -3.1458   -5.4792    0.0000 N   0  0  0  0  0  0  0  0  0  0  0  0
   -1.9000   -3.7875    0.0000 O   0  0  0  0  0  0  0  0  0  0  0  0
   -3.7333   -6.2375    0.0000 N   0  0  0  0  0  0  0  0  0  0  0  0
    3.7542   -4.5375    0.0000 C   0  0  0  0  0  0  0  0  0  0  0  0
    2.7542   -4.5375    0.0000 C   0  0  0  0  0  0  0  0  0  0  0  0
    8.2625   -4.8083    0.0000 C   0  0  0  0  0  0  0  0  0  0  0  0
   -0.7500   -4.2667    0.0000 C   0  0  0  0  0  0  0  0  0  0  0  0
    3.2542   -4.8083    0.0000 C   0  0  0  0  0  0  0  0  0  0  0  0
   -3.6750   -5.7000    0.0000 C   0  0  0  0  0  0  0  0  0  0  0  0
    5.7583   -4.5375    0.0000 C   0  0  0  0  0  0  0  0  0  0  0  0
   -0.2542   -4.5375    0.0000 O   0  0  0  0  0  0  0  0  0  0  0  0
    1.7500   -4.5375    0.0000 O   0  0  0  0  0  0  0  0  0  0  0  0
    0.9583   -4.7375    0.0000 O   0  0  0  0  0  0  0  0  0  0  0  0
    0.5375   -4.7375    0.0000 O   0  0  0  0  0  0  0  0  0  0  0  0
   -3.0000   -3.4500    0.0000 O   0  0  0  0  0  0  0  0  0  0  0  0
    2.2500   -4.2667    0.0000 C   0  0  0  0  0  0  0  0  0  0  0  0
    5.2583   -4.8083    0.0000 C   0  0  0  0  0  0  0  0  0  0  0  0
    3.7542   -3.9958    0.0000 O   0  0  0  0  0  0  0  0  0  0  0  0
    8.2625   -5.3500    0.0000 O   0  0  0  0  0  0  0  0  0  0  0  0
    5.7583   -3.9958    0.0000 O   0  0  0  0  0  0  0  0  0  0  0  0
   -2.7417   -4.6625    0.0000 O   0  0  0  0  0  0  0  0  0  0  0  0
    4.2542   -4.8083    0.0000 N   0  0  0  0  0  0  0  0  0  0  0  0
    1.5375   -3.7958    0.0000 O   0  0  0  0  0  0  0  0  0  0  0  0
   -0.0375   -3.7958    0.0000 O   0  0  0  0  0  0  0  0  0  0  0  0
   -2.6292   -4.1375    0.0000 O   0  0  0  0  0  0  0  0  0  0  0  0
   -2.2708   -3.1042    0.0000 O   0  0  0  0  0  0  0  0  0  0  0  0
    8.7667   -4.5375    0.0000 C   0  0  0  0  0  0  0  0  0  0  0  0
    7.7625   -4.5375    0.0000 S   0  0  0  0  0  0  0  0  0  0  0  0
   -3.3292   -7.0958    0.0000 N   0  0  0  0  0  0  0  0  0  0  0  0
    6.2583   -4.8083    0.0000 N   0  0  0  0  0  0  0  0  0  0  0  0
    4.7583   -4.5375    0.0000 C   0  0  0  0  0  0  0  0  0  0  0  0
    3.2542   -5.3500    0.0000 O   0  0  0  0  0  0  0  0  0  0  0  0
    8.7667   -3.9958    0.0000 Br  0  0  0  0  0  0  0  0  0  0  0  0
    2.4667   -5.0083    0.0000 C   0  0  0  0  0  0  0  0  0  0  0  0
    3.0417   -4.0667    0.0000 C   0  0  0  0  0  0  0  0  0  0  0  0
    7.2625   -4.8083    0.0000 C   0  0  0  0  0  0  0  0  0  0  0  0
    6.7625   -4.5375    0.0000 C   0  0  0  0  0  0  0  0  0  0  0  0
    9.2667   -4.8083    0.0000 C   0  0  0  0  0  0  0  0  0  0  0  0
    9.7667   -4.5375    0.0000 C   0  0  0  0  0  0  0  0  0  0  0  0
   14.2750   -4.8083    0.0000 C   0  0  0  0  0  0  0  0  0  0  0  0
   13.7750   -4.5375    0.0000 C   0  0  0  0  0  0  0  0  0  0  0  0
   11.7708   -4.5375    0.0000 C   0  0  0  0  0  0  0  0  0  0  0  0
   12.2708   -4.8083    0.0000 C   0  0  0  0  0  0  0  0  0  0  0  0
   12.7708   -4.5375    0.0000 C   0  0  0  0  0  0  0  0  0  0  0  0
   13.2750   -4.8083    0.0000 C   0  0  0  0  0  0  0  0  0  0  0  0
   10.2667   -4.8083    0.0000 C   0  0  0  0  0  0  0  0  0  0  0  0
   10.7667   -4.5375    0.0000 C   0  0  0  0  0  0  0  0  0  0  0  0
   11.2708   -4.8083    0.0000 C   0  0  0  0  0  0  0  0  0  0  0  0
   14.7750   -4.5375    0.0000 C   0  0  0  0  0  0  0  0  0  0  0  0
    2.7542   -5.0792    0.0000 H   0  0  0  0  0  0  0  0  0  0  0  0
  3  2  1  0
  4  2  1  0
  5  4  2  0
  6  3  1  0
  7  6  1  0
  8  9  2  0
  9  2  1  0
 10  3  1  0
 11 27  1  0
 12 13  1  0
 13 11  1  0
 14 10  1  0
 15 18  1  0
 16  5  1  0
 17  4  1  0
 18  7  1  0
 19 16  2  0
 20 24  1  0
 21 32  1  0
 22 44  1  0
 23 14  1  0
 24 21  1  0
 25 17  2  0
 26 33  1  0
 27 23  1  0
 28 12  1  0
 29 12  2  0
 30 11  2  0
 31 15  2  0
 32 28  1  0
 33 47  1  0
 34 20  2  0
 35 22  2  0
 36 26  2  0
 37  6  1  0
 38 20  1  0
 39 12  1  0
 40 11  1  0
 41 15  1  0
 42 15  1  0
 43 22  1  0
 44 52  1  0
 45 16  1  0
 46 26  1  0
 47 38  1  0
 24 48  1  1
 49 43  1  0
 50 21  1  0
 51 21  1  0
 52 53  1  0
 53 46  1  0
 54 43  1  0
 55 54  1  0
 56 57  1  0
 57 61  1  0
 58 64  1  0
 59 58  1  0
 60 59  1  0
 61 60  1  0
 62 55  1  0
 63 62  1  0
 64 63  1  0
 65 56  1  0
 24 66  1  6
  5  8  1  0
 25 19  1  0
 14  7  1  0
M  CHG  2   1   1  39  -1
M  END

> <chembl_id>
CHEMBL2028605

> <chembl_pref_name>
None

$$$$

     RDKit          2D

 61 63  0  0  0  0  0  0  0  0999 V2000
    3.4542  -17.1167    0.0000 S   0  0  0  0  0  0  0  0  0  0  0  0
    4.1686  -16.7042    0.0000 C   0  0  0  0  0  0  0  0  0  0  0  0
    4.8831  -17.1167    0.0000 C   0  0  0  0  0  0  0  0  0  0  0  0
    5.5976  -16.7042    0.0000 N   0  0  0  0  0  0  0  0  0  0  0  0
    6.3121  -17.1167    0.0000 C   0  0  0  0  0  0  0  0  0  0  0  0
    7.0265  -16.7042    0.0000 C   0  0  0  0  0  0  0  0  0  0  0  0
    6.3121  -17.9417    0.0000 O   0  0  0  0  0  0  0  0  0  0  0  0
    7.7410  -17.1167    0.0000 C   0  0  0  0  0  0  0  0  0  0  0  0
    8.4555  -16.7042    0.0000 N   0  0  0  0  0  0  0  0  0  0  0  0
    9.1699  -17.1167    0.0000 C   0  0  0  0  0  0  0  0  0  0  0  0
    9.8844  -16.7042    0.0000 C   0  0  0  0  0  0  0  0  0  0  0  0
    9.1699  -17.9417    0.0000 O   0  0  0  0  0  0  0  0  0  0  0  0
   10.5989  -17.1167    0.0000 C   0  0  0  0  0  0  0  0  0  0  0  0
    9.8844  -15.8792    0.0000 O   0  0  0  0  0  0  0  0  0  0  0  0
   11.3133  -16.7042    0.0000 C   0  0  0  0  0  0  0  0  0  0  0  0
   10.1792  -17.8250    0.0000 C   0  0  0  0  0  0  0  0  0  0  0  0
   11.0042  -17.8250    0.0000 C   0  0  0  0  0  0  0  0  0  0  0  0
   12.0278  -17.1167    0.0000 O   0  0  0  0  0  0  0  0  0  0  0  0
   12.7423  -16.7042    0.0000 P   0  0  0  0  0  0  0  0  0  0  0  0
   13.4568  -17.1167    0.0000 O   0  0  0  0  0  0  0  0  0  0  0  0
   12.7375  -15.8750    0.0000 O   0  0  0  0  0  0  0  0  0  0  0  0
   12.7375  -17.5250    0.0000 O   0  0  0  0  0  0  0  0  0  0  0  0
   14.1712  -16.7042    0.0000 P   0  0  0  0  0  0  0  0  0  0  0  0
   14.8857  -17.1167    0.0000 O   0  0  0  0  0  0  0  0  0  0  0  0
   14.1712  -15.8792    0.0000 O   0  0  0  0  0  0  0  0  0  0  0  0
   14.1667  -17.5250    0.0000 O   0  0  0  0  0  0  0  0  0  0  0  0
   15.6002  -16.7042    0.0000 C   0  0  0  0  0  0  0  0  0  0  0  0
   16.3155  -17.1161    0.0000 C   0  0  0  0  0  0  0  0  0  0  0  0
   16.5749  -17.8967    0.0000 C   0  0  0  0  0  0  0  0  0  0  0  0
   17.3999  -17.8912    0.0000 C   0  0  0  0  0  0  0  0  0  0  0  0
   17.6496  -17.1049    0.0000 C   0  0  0  0  0  0  0  0  0  0  0  0
   16.9789  -16.6245    0.0000 O   0  0  0  0  0  0  0  0  0  0  0  0
   18.3583  -16.6875    0.0000 N   0  0  0  0  0  0  0  0  0  0  0  0
   16.1734  -18.6169    0.0000 O   0  0  0  0  0  0  0  0  0  0  0  0
   15.3485  -18.6294    0.0000 P   0  0  0  0  0  0  0  0  0  0  0  0
   14.9468  -19.3501    0.0000 O   0  0  0  0  0  0  0  0  0  0  0  0
   14.9252  -17.9213    0.0000 O   0  0  0  0  0  0  0  0  0  0  0  0
   15.8318  -19.2883    0.0000 O   0  0  0  0  0  0  0  0  0  0  0  0
   17.8892  -18.5554    0.0000 O   0  0  0  0  0  0  0  0  0  0  0  0
   19.0238  -17.1708    0.0000 C   0  0  0  0  0  0  0  0  0  0  0  0
   19.6891  -16.6872    0.0000 N   0  0  0  0  0  0  0  0  0  0  0  0
   18.6123  -15.9053    0.0000 C   0  0  0  0  0  0  0  0  0  0  0  0
   19.4357  -15.9080    0.0000 C   0  0  0  0  0  0  0  0  0  0  0  0
   19.8475  -15.2002    0.0000 C   0  0  0  0  0  0  0  0  0  0  0  0
   19.4404  -14.4851    0.0000 N   0  0  0  0  0  0  0  0  0  0  0  0
   18.6170  -14.4824    0.0000 C   0  0  0  0  0  0  0  0  0  0  0  0
   18.2007  -15.1948    0.0000 N   0  0  0  0  0  0  0  0  0  0  0  0
   20.6725  -15.2040    0.0000 N   0  0  0  0  0  0  0  0  0  0  0  0
    2.7397  -16.7042    0.0000 C   0  0  0  0  0  0  0  0  0  0  0  0
    2.0252  -17.1167    0.0000 C   0  0  0  0  0  0  0  0  0  0  0  0
    2.7397  -15.8792    0.0000 O   0  0  0  0  0  0  0  0  0  0  0  0
    1.3108  -16.7042    0.0000 C   0  0  0  0  0  0  0  0  0  0  0  0
    0.5963  -17.1167    0.0000 C   0  0  0  0  0  0  0  0  0  0  0  0
   -0.1182  -16.7042    0.0000 C   0  0  0  0  0  0  0  0  0  0  0  0
   -0.8327  -17.1167    0.0000 C   0  0  0  0  0  0  0  0  0  0  0  0
   -1.5471  -16.7042    0.0000 C   0  0  0  0  0  0  0  0  0  0  0  0
   -2.2616  -17.1167    0.0000 C   0  0  0  0  0  0  0  0  0  0  0  0
   -2.9761  -16.7042    0.0000 C   0  0  0  0  0  0  0  0  0  0  0  0
   -3.6845  -17.1167    0.0000 C   0  0  0  0  0  0  0  0  0  0  0  0
   -4.4005  -16.7068    0.0000 C   0  0  0  0  0  0  0  0  0  0  0  0
   -5.1134  -17.1220    0.0000 C   0  0  0  0  0  0  0  0  0  0  0  0
 29 30  1  0
 30 31  1  0
 31 32  1  0
 32 28  1  0
 31 33  1  1
 13 17  1  0
 29 34  1  6
  8  9  1  0
 34 35  1  0
 15 18  1  0
 35 36  1  0
  4  5  1  0
 35 37  2  0
 18 19  1  0
 35 38  1  0
  9 10  1  0
 30 39  1  6
 33 40  1  0
 19 20  1  0
  2  3  1  0
 40 41  2  0
 41 43  1  0
 42 33  1  0
 42 43  2  0
 19 21  2  0
 10 11  1  0
 19 22  1  0
  5  6  1  0
 20 23  1  0
 10 12  2  0
 42 47  1  0
 43 44  1  0
 44 45  2  0
 45 46  1  0
 46 47  2  0
 23 24  1  0
 44 48  1  0
  1  2  1  0
  1 49  1  0
 23 25  2  0
 49 50  1  0
 11 13  1  0
 49 51  2  0
 23 26  1  0
 50 52  1  0
  5  7  2  0
 52 53  1  0
 24 27  1  0
 53 54  1  0
 11 14  1  0
 54 55  1  0
 28 27  1  1
 55 56  1  0
 28 29  1  0
 56 57  1  0
  3  4  1  0
 57 58  1  0
 13 15  1  0
 58 59  1  0
  6  8  1  0
 59 60  1  0
 13 16  1  0
 60 61  1  0
M  END

> <chembl_id>
CHEMBL1949898

> <chembl_pref_name>
Dodecanoyl-CoA

$$$$

     RDKit          2D

 37 39  0  0  0  0  0  0  0  0999 V2000
    2.7343   -2.9815    0.0000 C   0  0  0  0  0  0  0  0  0  0  0  0
    4.2010   -3.2956    0.0000 C   0  0  0  0  0  0  0  0  0  0  0  0
    4.9531   -1.9978    0.0000 C   0  0  0  0  0  0  0  0  0  0  0  0
    3.9511   -0.8815    0.0000 S   0  0  0  0  0  0  0  0  0  0  0  0
    2.5987   -1.5004    0.0000 C   0  0  0  0  0  0  0  0  0  0  0  0
    1.2990   -0.7500    0.0000 C   0  0  0  0  0  0  0  0  0  0  0  0
    1.2990    0.7500    0.0000 C   0  0  0  0  0  0  0  0  0  0  0  0
    0.0000    1.5000    0.0000 C   0  0  0  0  0  0  0  0  0  0  0  0
   -1.2990    0.7500    0.0000 C   0  0  0  0  0  0  0  0  0  0  0  0
   -1.2990   -0.7500    0.0000 C   0  0  0  0  0  0  0  0  0  0  0  0
    0.0000   -1.5000    0.0000 C   0  0  0  0  0  0  0  0  0  0  0  0
    4.8054   -4.6666    0.0000 N   0  0  0  0  0  0  0  0  0  0  0  0
    3.9196   -5.8781    0.0000 C   0  0  0  0  0  0  0  0  0  0  0  0
    4.5250   -7.2514    0.0000 N   0  0  0  0  0  0  0  0  0  0  0  0
    2.7266   -5.7487    0.0000 O   0  0  0  0  0  0  0  0  0  0  0  0
    3.6391   -8.4629    0.0000 C   0  0  0  0  0  0  0  0  0  0  0  0
    4.2446   -9.8362    0.0000 C   0  0  0  0  0  0  0  0  0  0  0  0
    2.1467   -8.3041    0.0000 C   0  0  0  0  0  0  0  0  0  0  0  0
    1.2621   -9.5165    0.0000 S   0  0  0  0  0  0  0  0  0  0  0  0
    1.6604   -7.2070    0.0000 O   0  0  0  0  0  0  0  0  0  0  0  0
    6.4430   -1.8404    0.0000 C   0  0  0  0  0  0  0  0  0  0  0  0
    7.1485   -2.8111    0.0000 O   0  0  0  0  0  0  0  0  0  0  0  0
    6.9313   -0.7443    0.0000 O   0  0  0  0  0  0  0  0  0  0  0  0
   -2.6003    1.4977    0.0000 O   0  0  0  0  0  0  0  0  0  0  0  0
   -3.6387    0.8962    0.0000 C   0  0  0  0  0  0  0  0  0  0  0  0
    3.3587  -11.0477    0.0000 C   0  0  0  0  0  0  0  0  0  0  0  0
    3.9619  -12.4212    0.0000 C   0  0  0  0  0  0  0  0  0  0  0  0
    3.0741  -13.6302    0.0000 C   0  0  0  0  0  0  0  0  0  0  0  0
    1.5831  -13.4660    0.0000 C   0  0  0  0  0  0  0  0  0  0  0  0
    0.9799  -12.0926    0.0000 C   0  0  0  0  0  0  0  0  0  0  0  0
    1.8677  -10.8835    0.0000 C   0  0  0  0  0  0  0  0  0  0  0  0
   -0.2302   -9.3577    0.0000 C   0  0  0  0  0  0  0  0  0  0  0  0
   -1.1148  -10.5702    0.0000 C   0  0  0  0  0  0  0  0  0  0  0  0
   -2.6072  -10.4114    0.0000 N   0  0  0  0  0  0  0  0  0  0  0  0
   -3.4917  -11.6238    0.0000 C   0  0  0  0  0  0  0  0  0  0  0  0
   -3.0054  -12.7209    0.0000 C   0  0  0  0  0  0  0  0  0  0  0  0
   -4.6849  -11.4968    0.0000 O   0  0  0  0  0  0  0  0  0  0  0  0
  1  2  1  0
  2  3  2  0
  3  4  1  0
  4  5  1  0
  5  1  2  0
  6  7  2  0
  7  8  1  0
  8  9  2  0
  9 10  1  0
 10 11  2  0
 11  6  1  0
  5  6  1  0
  2 12  1  0
 12 13  1  0
 13 14  1  0
 13 15  2  0
 14 16  1  0
 16 17  1  1
 16 18  1  0
 18 19  1  0
 18 20  2  0
 21 22  1  0
 21 23  2  0
  3 21  1  0
  9 24  1  0
 24 25  1  0
 17 26  1  0
 26 27  2  0
 27 28  1  0
 28 29  2  0
 29 30  1  0
 30 31  2  0
 31 26  1  0
 19 32  1  0
 32 33  1  0
 33 34  1  0
 34 35  1  0
 35 36  1  0
 35 37  2  0
M  END

> <chembl_id>
CHEMBL3414808

> <chembl_pref_name>
None

$$$$

     RDKit          2D

 65 67  0  0  1  0  0  0  0  0999 V2000
   -2.1125   -5.6875    0.0000 N   0  0  0  0  0  0  0  0  0  0  0  0
   -1.8750   -5.1917    0.0000 C   0  0  0  0  0  0  0  0  0  0  0  0
   -2.6792   -5.8000    0.0000 C   0  0  0  0  0  0  0  0  0  0  0  0
   -2.7375   -6.3375    0.0000 C   0  0  0  0  0  0  0  0  0  0  0  0
   -2.1667   -4.7208    0.0000 C   0  0  0  0  0  0  0  0  0  0  0  0
   -1.7792   -4.3167    0.0000 C   0  0  0  0  0  0  0  0  0  0  0  0
   -2.2083   -6.5583    0.0000 N   0  0  0  0  0  0  0  0  0  0  0  0
   -1.8250   -6.1542    0.0000 C   0  0  0  0  0  0  0  0  0  0  0  0
   -1.3125   -5.0792    0.0000 O   0  0  0  0  0  0  0  0  0  0  0  0
    0.2500   -4.2667    0.0000 P   0  0  0  0  0  0  0  0  0  0  0  0
    1.2500   -4.2667    0.0000 P   0  0  0  0  0  0  0  0  0  0  0  0
    0.7500   -3.9958    0.0000 O   0  0  0  0  0  0  0  0  0  0  0  0
   -1.2500   -4.5375    0.0000 C   0  0  0  0  0  0  0  0  0  0  0  0
   -2.4500   -3.6167    0.0000 P   0  0  0  0  0  0  0  0  0  0  0  0
   -3.2667   -6.5583    0.0000 C   0  0  0  0  0  0  0  0  0  0  0  0
   -3.1458   -5.4792    0.0000 N   0  0  0  0  0  0  0  0  0  0  0  0
   -1.9000   -3.7875    0.0000 O   0  0  0  0  0  0  0  0  0  0  0  0
   -3.7333   -6.2375    0.0000 N   0  0  0  0  0  0  0  0  0  0  0  0
    3.7542   -4.5375    0.0000 C   0  0  0  0  0  0  0  0  0  0  0  0
    2.7542   -4.5375    0.0000 C   0  0  0  0  0  0  0  0  0  0  0  0
    8.2625   -4.8083    0.0000 C   0  0  0  0  0  0  0  0  0  0  0  0
   -0.7500   -4.2667    0.0000 C   0  0  0  0  0  0  0  0  0  0  0  0
    3.2542   -4.8083    0.0000 C   0  0  0  0  0  0  0  0  0  0  0  0
   -3.6750   -5.7000    0.0000 C   0  0  0  0  0  0  0  0  0  0  0  0
    5.7583   -4.5375    0.0000 C   0  0  0  0  0  0  0  0  0  0  0  0
   -0.2542   -4.5375    0.0000 O   0  0  0  0  0  0  0  0  0  0  0  0
    1.7500   -4.5375    0.0000 O   0  0  0  0  0  0  0  0  0  0  0  0
    0.9583   -4.7375    0.0000 O   0  0  0  0  0  0  0  0  0  0  0  0
    0.5375   -4.7375    0.0000 O   0  0  0  0  0  0  0  0  0  0  0  0
   -3.0000   -3.4500    0.0000 O   0  0  0  0  0  0  0  0  0  0  0  0
    2.2500   -4.2667    0.0000 C   0  0  0  0  0  0  0  0  0  0  0  0
    5.2583   -4.8083    0.0000 C   0  0  0  0  0  0  0  0  0  0  0  0
    3.7542   -3.9958    0.0000 O   0  0  0  0  0  0  0  0  0  0  0  0
    8.2625   -5.3500    0.0000 O   0  0  0  0  0  0  0  0  0  0  0  0
    5.7583   -3.9958    0.0000 O   0  0  0  0  0  0  0  0  0  0  0  0
   -2.7417   -4.6625    0.0000 O   0  0  0  0  0  0  0  0  0  0  0  0
    4.2542   -4.8083    0.0000 N   0  0  0  0  0  0  0  0  0  0  0  0
    1.5375   -3.7958    0.0000 O   0  0  0  0  0  0  0  0  0  0  0  0
   -0.0375   -3.7958    0.0000 O   0  0  0  0  0  0  0  0  0  0  0  0
   -2.6292   -4.1375    0.0000 O   0  0  0  0  0  0  0  0  0  0  0  0
   -2.2708   -3.1042    0.0000 O   0  0  0  0  0  0  0  0  0  0  0  0
    8.7667   -4.5375    0.0000 C   0  0  0  0  0  0  0  0  0  0  0  0
    7.7625   -4.5375    0.0000 S   0  0  0  0  0  0  0  0  0  0  0  0
   -3.3292   -7.0958    0.0000 N   0  0  0  0  0  0  0  0  0  0  0  0
    6.2583   -4.8083    0.0000 N   0  0  0  0  0  0  0  0  0  0  0  0
    4.7583   -4.5375    0.0000 C   0  0  0  0  0  0  0  0  0  0  0  0
    3.2542   -5.3500    0.0000 O   0  0  0  0  0  0  0  0  0  0  0  0
    8.7667   -3.9958    0.0000 Br  0  0  0  0  0  0  0  0  0  0  0  0
    2.4667   -5.0083    0.0000 C   0  0  0  0  0  0  0  0  0  0  0  0
    3.0417   -4.0667    0.0000 C   0  0  0  0  0  0  0  0  0  0  0  0
    7.2625   -4.8083    0.0000 C   0  0  0  0  0  0  0  0  0  0  0  0
    6.7625   -4.5375    0.0000 C   0  0  0  0  0  0  0  0  0  0  0  0
    9.2667   -4.8083    0.0000 C   0  0  0  0  0  0  0  0  0  0  0  0
    9.7667   -4.5375    0.0000 C   0  0  0  0  0  0  0  0  0  0  0  0
   14.2750   -4.8083    0.0000 C   0  0  0  0  0  0  0  0  0  0  0  0
   13.7750   -4.5375    0.0000 C   0  0  0  0  0  0  0  0  0  0  0  0
   11.7708   -4.5375    0.0000 C   0  0  0  0  0  0  0  0  0  0  0  0
   12.2708   -4.8083    0.0000 C   0  0  0  0  0  0  0  0  0  0  0  0
   12.7708   -4.5375    0.0000 C   0  0  0  0  0  0  0  0  0  0  0  0
   13.2750   -4.8083    0.0000 C   0  0  0  0  0  0  0  0  0  0  0  0
   10.2667   -4.8083    0.0000 C   0  0  0  0  0  0  0  0  0  0  0  0
   10.7667   -4.5375    0.0000 C   0  0  0  0  0  0  0  0  0  0  0  0
   11.2708   -4.8083    0.0000 C   0  0  0  0  0  0  0  0  0  0  0  0
   14.7750   -4.5375    0.0000 C   0  0  0  0  0  0  0  0  0  0  0  0
    2.7542   -5.0792    0.0000 H   0  0  0  0  0  0  0  0  0  0  0  0
  2  1  1  0
  3  1  1  0
  4  3  2  0
  5  2  1  0
  6  5  1  0
  7  8  2  0
  8  1  1  0
  9  2  1  0
 10 26  1  0
 11 12  1  0
 12 10  1  0
 13  9  1  0
 14 17  1  0
 15  4  1  0
 16  3  1  0
 17  6  1  0
 18 15  2  0
 19 23  1  0
 20 31  1  0
 21 43  1  0
 22 13  1  0
 23 20  1  0
 24 16  2  0
 25 32  1  0
 26 22  1  0
 27 11  1  0
 28 11  2  0
 29 10  2  0
 30 14  2  0
 31 27  1  0
 32 46  1  0
 33 19  2  0
 34 21  2  0
 35 25  2  0
 36  5  1  0
 37 19  1  0
 38 11  1  0
 39 10  1  0
 40 14  1  0
 41 14  1  0
 42 21  1  0
 43 51  1  0
 44 15  1  0
 45 25  1  0
 46 37  1  0
 23 47  1  1
 48 42  1  0
 49 20  1  0
 50 20  1  0
 51 52  1  0
 52 45  1  0
 53 42  1  0
 54 53  1  0
 55 56  1  0
 56 60  1  0
 57 63  1  0
 58 57  1  0
 59 58  1  0
 60 59  1  0
 61 54  1  0
 62 61  1  0
 63 62  1  0
 64 55  1  0
 23 65  1  6
  4  7  1  0
 24 18  1  0
 13  6  1  0
M  END

> <chembl_id>
CHEMBL2009921

> <chembl_pref_name>
None

$$$$
 
     RDKit          2D

 47 50  0  0  0  0  0  0  0  0999 V2000
    6.3312   -3.2847    0.0000 C   0  0  0  0  0  0  0  0  0  0  0  0
    5.5140   -3.2847    0.0000 C   0  0  0  0  0  0  0  0  0  0  0  0
    5.1031   -3.9930    0.0000 C   0  0  0  0  0  0  0  0  0  0  0  0
    5.5140   -4.6968    0.0000 S   0  0  0  0  0  0  0  0  0  0  0  0
    5.1076   -5.4006    0.0000 C   0  0  0  0  0  0  0  0  0  0  0  0
    5.5140   -6.1089    0.0000 C   0  0  0  0  0  0  0  0  0  0  0  0
    6.7375   -3.9930    0.0000 N   0  0  0  0  0  0  0  0  0  0  0  0
    6.3293   -6.1123    0.0000 N   0  0  0  0  0  0  0  0  0  0  0  0
    6.7437   -6.8178    0.0000 C   0  0  0  0  0  0  0  0  0  0  0  0
    7.5658   -6.8139    0.0000 C   0  0  0  0  0  0  0  0  0  0  0  0
    7.5479   -3.9891    0.0000 C   0  0  0  0  0  0  0  0  0  0  0  0
    9.1773   -3.9951    0.0000 C   0  0  0  0  0  0  0  0  0  0  0  0
    8.7711   -3.2873    0.0000 O   0  0  0  0  0  0  0  0  0  0  0  0
    7.9534   -3.2834    0.0000 C   0  0  0  0  0  0  0  0  0  0  0  0
    7.9462   -6.0792    0.0000 N   0  0  0  0  0  0  0  0  0  0  0  0
    8.7458   -6.0847    0.0000 C   0  0  0  0  0  0  0  0  0  0  0  0
    9.1488   -5.3933    0.0000 C   0  0  0  0  0  0  0  0  0  0  0  0
    9.9095   -4.3996    0.0000 C   0  0  0  0  0  0  0  0  0  0  0  0
    9.9342   -5.1755    0.0000 O   0  0  0  0  0  0  0  0  0  0  0  0
    9.1505   -6.7946    0.0000 O   0  0  0  0  0  0  0  0  0  0  0  0
    6.3394   -7.5280    0.0000 O   0  0  0  0  0  0  0  0  0  0  0  0
    4.2904   -5.3995    0.0000 O   0  0  0  0  0  0  0  0  0  0  0  0
    6.7407   -2.5775    0.0000 O   0  0  0  0  0  0  0  0  0  0  0  0
    5.1061   -2.5766    0.0000 N   0  0  0  0  0  0  0  0  0  0  0  0
    4.2889   -2.5757    0.0000 C   0  0  0  0  0  0  0  0  0  0  0  0
    3.8810   -1.8676    0.0000 C   0  0  0  0  0  0  0  0  0  0  0  0
    3.8796   -3.2830    0.0000 O   0  0  0  0  0  0  0  0  0  0  0  0
    5.1029   -6.8152    0.0000 C   0  0  0  0  0  0  0  0  0  0  0  0
    4.2858   -6.8124    0.0000 C   0  0  0  0  0  0  0  0  0  0  0  0
    7.9921   -7.5110    0.0000 C   0  0  0  0  0  0  0  0  0  0  0  0
    7.6015   -8.2288    0.0000 C   0  0  0  0  0  0  0  0  0  0  0  0
    6.7954   -8.3378    0.0000 C   0  0  0  0  0  0  0  0  0  0  0  0
    6.6457   -9.1412    0.0000 C   0  0  0  0  0  0  0  0  0  0  0  0
    7.3636   -9.5318    0.0000 C   0  0  0  0  0  0  0  0  0  0  0  0
    7.9568   -8.9698    0.0000 C   0  0  0  0  0  0  0  0  0  0  0  0
    3.8841   -6.1022    0.0000 C   0  0  0  0  0  0  0  0  0  0  0  0
    3.0677   -6.0991    0.0000 C   0  0  0  0  0  0  0  0  0  0  0  0
    2.6559   -6.8059    0.0000 C   0  0  0  0  0  0  0  0  0  0  0  0
    3.0664   -7.5174    0.0000 C   0  0  0  0  0  0  0  0  0  0  0  0
    3.8815   -7.5170    0.0000 C   0  0  0  0  0  0  0  0  0  0  0  0
    3.0638   -1.8668    0.0000 C   0  0  0  0  0  0  0  0  0  0  0  0
    2.6576   -1.1532    0.0000 C   0  0  0  0  0  0  0  0  0  0  0  0
    1.8412   -1.1520    0.0000 C   0  0  0  0  0  0  0  0  0  0  0  0
    1.4311   -1.8598    0.0000 C   0  0  0  0  0  0  0  0  0  0  0  0
    1.8433   -2.5703    0.0000 C   0  0  0  0  0  0  0  0  0  0  0  0
    2.6584   -2.5680    0.0000 C   0  0  0  0  0  0  0  0  0  0  0  0
    2.6578   -8.2251    0.0000 F   0  0  0  0  0  0  0  0  0  0  0  0
  4  3  1  0
  7  1  1  0
  1  2  1  0
  2  3  1  0
  4  5  1  0
  5  6  1  0
  6  8  1  0
  7 11  1  0
  8  9  1  0
  9 10  1  0
 10 15  1  0
 11 14  1  0
 12 13  1  0
 13 14  1  0
 15 16  1  0
 16 17  1  0
 12 18  1  0
 17 19  1  0
 19 18  1  0
 16 20  2  0
  9 21  2  0
  5 22  2  0
  1 23  2  0
  2 24  1  1
 24 25  1  0
 25 26  1  0
 25 27  2  0
  6 28  1  1
 28 29  1  0
 10 30  1  1
 30 31  1  0
 31 32  1  0
 32 33  1  0
 33 34  1  0
 34 35  1  0
 35 31  1  0
 29 36  2  0
 36 37  1  0
 37 38  2  0
 38 39  1  0
 39 40  2  0
 40 29  1  0
 26 41  1  0
 41 42  2  0
 42 43  1  0
 43 44  2  0
 44 45  1  0
 45 46  2  0
 46 41  1  0
 39 47  1  0
M  END

> <chembl_id>
CHEMBL4584804

> <chembl_pref_name>
None

$$$$

     RDKit          2D

 28 30  0  0  0  0  0  0  0  0999 V2000
   17.0915   -4.1541    0.0000 N   0  0  0  0  0  0  0  0  0  0  0  0
   16.2749   -4.1666    0.0000 C   0  0  0  0  0  0  0  0  0  0  0  0
   17.0998   -3.3416    0.0000 C   0  0  0  0  0  0  0  0  0  0  0  0
   16.2749   -3.3416    0.0000 C   0  0  0  0  0  0  0  0  0  0  0  0
   17.7998   -4.5791    0.0000 C   0  0  0  0  0  0  0  0  0  0  0  0
   17.8123   -2.9291    0.0000 S   0  0  0  0  0  0  0  0  0  0  0  0
   18.5165   -4.1666    0.0000 C   0  0  0  0  0  0  0  0  0  0  0  0
   15.5540   -2.9250    0.0000 N   0  0  0  0  0  0  0  0  0  0  0  0
   17.7915   -5.4000    0.0000 C   0  0  0  0  0  0  0  0  0  0  0  0
   14.8415   -3.3375    0.0000 C   0  0  0  0  0  0  0  0  0  0  0  0
   14.1290   -2.9167    0.0000 C   0  0  0  0  0  0  0  0  0  0  0  0
   13.4040   -3.3249    0.0000 C   0  0  0  0  0  0  0  0  0  0  0  0
   18.5248   -3.3500    0.0000 C   0  0  0  0  0  0  0  0  0  0  0  0
   15.6873   -4.7499    0.0000 O   0  0  0  0  0  0  0  0  0  0  0  0
   12.7416   -2.8417    0.0000 S   0  0  0  0  0  0  0  0  0  0  0  0
   19.2248   -4.5916    0.0000 C   0  0  0  0  0  0  0  0  0  0  0  0
   20.6623   -4.5791    0.0000 C   0  0  0  0  0  0  0  0  0  0  0  0
   12.0666   -3.3249    0.0000 C   0  0  0  0  0  0  0  0  0  0  0  0
   18.5039   -5.8166    0.0000 O   0  0  0  0  0  0  0  0  0  0  0  0
   13.1541   -4.1125    0.0000 C   0  0  0  0  0  0  0  0  0  0  0  0
   14.8249   -4.1541    0.0000 O   0  0  0  0  0  0  0  0  0  0  0  0
   19.9373   -4.1666    0.0000 O   0  0  0  0  0  0  0  0  0  0  0  0
   12.3291   -4.1125    0.0000 C   0  0  0  0  0  0  0  0  0  0  0  0
   20.6748   -5.4000    0.0000 O   0  0  0  0  0  0  0  0  0  0  0  0
   17.0748   -5.8041    0.0000 O   0  0  0  0  0  0  0  0  0  0  0  0
   21.3664   -4.1541    0.0000 C   0  0  0  0  0  0  0  0  0  0  0  0
   17.0915   -2.5250    0.0000 H   0  0  0  0  0  0  0  0  0  0  0  0
   19.2434   -2.9447    0.0000 O   0  0  0  0  0  0  0  0  0  0  0  0
  2  1  1  0
  3  1  1  0
  4  3  1  0
  5  1  1  0
  6  3  1  0
  7  5  2  0
  4  8  1  1
  9  5  1  0
 10  8  1  0
 11 10  1  0
 12 11  1  0
 13  7  1  0
 14  2  2  0
 15 12  1  0
 16  7  1  0
 17 22  1  0
 18 15  1  0
 19  9  2  0
 20 12  2  0
 21 10  2  0
 22 16  1  0
 23 20  1  0
 24 17  2  0
 25  9  1  0
 26 17  1  0
  3 27  1  6
  4  2  1  0
 13  6  1  0
 18 23  2  0
 13 28  2  0
M  END

> <chembl_id>
CHEMBL3230170

> <chembl_pref_name>
None

$$$$

     RDKit          2D

 16 17  0  0  0  0  0  0  0  0999 V2000
   23.7011   -7.5810    0.0000 C   0  0  0  0  0  0  0  0  0  0  0  0
   23.0382   -7.0988    0.0000 N   0  0  0  0  0  0  0  0  0  0  0  0
   22.3794   -7.5810    0.0000 C   0  0  0  0  0  0  0  0  0  0  0  0
   23.4468   -8.3577    0.0000 C   0  0  0  0  0  0  0  0  0  0  0  0
   22.6296   -8.3577    0.0000 C   0  0  0  0  0  0  0  0  0  0  0  0
   22.3770   -9.1349    0.0000 C   0  0  0  0  0  0  0  0  0  0  0  0
   23.0382   -9.6153    0.0000 C   0  0  0  0  0  0  0  0  0  0  0  0
   23.6992   -9.1349    0.0000 C   0  0  0  0  0  0  0  0  0  0  0  0
   21.5998   -9.3874    0.0000 O   0  0  0  0  0  0  0  0  0  0  0  0
   21.8083   -8.3535    0.0000 H   0  0  0  0  0  0  0  0  0  0  0  0
   24.2598   -8.3576    0.0000 S   0  0  0  0  0  0  0  0  0  0  0  0
   24.6685   -9.0653    0.0000 C   0  0  0  0  0  0  0  0  0  0  0  0
   25.4857   -9.0653    0.0000 C   0  0  0  0  0  0  0  0  0  0  0  0
   24.2599   -9.7731    0.0000 O   0  0  0  0  0  0  0  0  0  0  0  0
   24.4787   -7.3295    0.0000 O   0  0  0  0  0  0  0  0  0  0  0  0
   21.6021   -7.3288    0.0000 O   0  0  0  0  0  0  0  0  0  0  0  0
  4  1  1  0
  1  2  1  0
  2  3  1  0
  3  5  1  0
  4  5  1  0
  5  6  1  0
  6  7  1  0
  7  8  1  0
  8  4  1  0
  6  9  1  6
  5 10  1  6
  4 11  1  6
 11 12  1  0
 12 13  1  0
 12 14  2  0
  1 15  2  0
  3 16  2  0
M  END

> <chembl_id>
CHEMBL4071726

> <chembl_pref_name>
None

$$$$

     RDKit          2D

 32 34  0  0  0  0  0  0  0  0999 V2000
   -1.9752    1.0316    0.0000 C   0  0  0  0  0  0  0  0  0  0  0  0
   -1.9587    1.8590    0.0000 S   0  0  0  0  0  0  0  0  0  0  0  0
   -2.7383    2.1261    0.0000 C   0  0  0  0  0  0  0  0  0  0  0  0
   -2.7653    0.7938    0.0000 C   0  0  0  0  0  0  0  0  0  0  0  0
   -3.2371    1.4705    0.0000 C   0  0  0  0  0  0  0  0  0  0  0  0
   -4.0266    1.2310    0.0000 N   0  0  0  0  0  0  0  0  0  0  0  0
   -4.0427    0.4060    0.0000 C   0  0  0  0  0  0  0  0  0  0  0  0
   -3.2632    0.1360    0.0000 N   0  0  0  0  0  0  0  0  0  0  0  0
   -1.3180    0.5328    0.0000 C   0  0  0  0  0  0  0  0  0  0  0  0
   -0.5950    0.9305    0.0000 C   0  0  0  0  0  0  0  0  0  0  0  0
    0.1106    0.5031    0.0000 C   0  0  0  0  0  0  0  0  0  0  0  0
    0.8336    0.9005    0.0000 C   0  0  0  0  0  0  0  0  0  0  0  0
    1.5393    0.4731    0.0000 C   0  0  0  0  0  0  0  0  0  0  0  0
    2.2622    0.8705    0.0000 N   0  0  0  0  0  0  0  0  0  0  0  0
    1.5219   -0.3518    0.0000 O   0  0  0  0  0  0  0  0  0  0  0  0
    2.9679    0.4430    0.0000 C   0  0  0  0  0  0  0  0  0  0  0  0
    3.6909    0.8404    0.0000 C   0  0  0  0  0  0  0  0  0  0  0  0
    4.3965    0.4130    0.0000 S   0  0  0  0  0  0  0  0  0  0  0  0
    5.1195    0.8104    0.0000 C   0  0  0  0  0  0  0  0  0  0  0  0
    5.8251    0.3830    0.0000 C   0  0  0  0  0  0  0  0  0  0  0  0
    5.1368    1.6352    0.0000 O   0  0  0  0  0  0  0  0  0  0  0  0
    6.5481    0.7804    0.0000 C   0  0  0  0  0  0  0  0  0  0  0  0
    7.2534    0.3479    0.0000 C   0  0  0  0  0  0  0  0  0  0  0  0
    7.9742    0.7419    0.0000 C   0  0  0  0  0  0  0  0  0  0  0  0
    7.9958    1.5670    0.0000 N   0  0  0  0  0  0  0  0  0  0  0  0
    7.2903    1.9966    0.0000 C   0  0  0  0  0  0  0  0  0  0  0  0
    6.5633    1.6011    0.0000 C   0  0  0  0  0  0  0  0  0  0  0  0
    7.3105    2.8213    0.0000 O   0  0  0  0  0  0  0  0  0  0  0  0
    8.6782    0.3118    0.0000 O   0  0  0  0  0  0  0  0  0  0  0  0
   -4.7195   -0.0658    0.0000 O   0  0  0  0  0  0  0  0  0  0  0  0
   -3.6542    2.1875    0.0000 H   0  0  0  0  0  0  0  0  0  0  0  0
   -2.3583    0.0833    0.0000 H   0  0  0  0  0  0  0  0  0  0  0  0
  6  7  1  0
 14 16  1  0
  7  8  1  0
 16 17  1  0
  8  4  1  0
 17 18  1  0
  4  5  1  0
 18 19  1  0
  1  9  1  1
 19 20  1  0
 19 21  2  0
  9 10  1  0
 20 22  1  0
 22 23  1  0
  4  1  1  0
 10 11  1  0
  1  2  1  0
 11 12  1  0
  2  3  1  0
 22 27  1  0
 23 24  1  0
 24 25  1  0
 25 26  1  0
 26 27  1  0
 12 13  1  0
 26 28  2  0
  3  5  1  0
 24 29  2  0
 13 14  1  0
  7 30  2  0
  5  6  1  0
  5 31  1  6
 13 15  2  0
  4 32  1  6
M  END

> <chembl_id>
CHEMBL1935427

> <chembl_pref_name>
None

$$$$

     RDKit          2D

 57 59  0  0  0  0  0  0  0  0999 V2000
    2.1875  -19.9458    0.0000 S   0  0  0  0  0  0  0  0  0  0  0  0
    2.9020  -19.5333    0.0000 C   0  0  0  0  0  0  0  0  0  0  0  0
    3.6164  -19.9458    0.0000 C   0  0  0  0  0  0  0  0  0  0  0  0
    4.3309  -19.5333    0.0000 N   0  0  0  0  0  0  0  0  0  0  0  0
    5.0454  -19.9458    0.0000 C   0  0  0  0  0  0  0  0  0  0  0  0
    5.7599  -19.5333    0.0000 C   0  0  0  0  0  0  0  0  0  0  0  0
    5.0454  -20.7708    0.0000 O   0  0  0  0  0  0  0  0  0  0  0  0
    6.4743  -19.9458    0.0000 C   0  0  0  0  0  0  0  0  0  0  0  0
    7.1888  -19.5333    0.0000 N   0  0  0  0  0  0  0  0  0  0  0  0
    7.9033  -19.9458    0.0000 C   0  0  0  0  0  0  0  0  0  0  0  0
    8.6177  -19.5333    0.0000 C   0  0  0  0  0  0  0  0  0  0  0  0
    7.9033  -20.7708    0.0000 O   0  0  0  0  0  0  0  0  0  0  0  0
    9.3322  -19.9458    0.0000 C   0  0  0  0  0  0  0  0  0  0  0  0
    8.6177  -18.7083    0.0000 O   0  0  0  0  0  0  0  0  0  0  0  0
   10.0467  -19.5333    0.0000 C   0  0  0  0  0  0  0  0  0  0  0  0
    8.9125  -20.6542    0.0000 C   0  0  0  0  0  0  0  0  0  0  0  0
    9.7375  -20.6542    0.0000 C   0  0  0  0  0  0  0  0  0  0  0  0
   10.7612  -19.9458    0.0000 O   0  0  0  0  0  0  0  0  0  0  0  0
   11.4756  -19.5333    0.0000 P   0  0  0  0  0  0  0  0  0  0  0  0
   12.1901  -19.9458    0.0000 O   0  0  0  0  0  0  0  0  0  0  0  0
   11.4708  -18.7042    0.0000 O   0  0  0  0  0  0  0  0  0  0  0  0
   11.4708  -20.3542    0.0000 O   0  0  0  0  0  0  0  0  0  0  0  0
   12.9046  -19.5333    0.0000 P   0  0  0  0  0  0  0  0  0  0  0  0
   13.6190  -19.9458    0.0000 O   0  0  0  0  0  0  0  0  0  0  0  0
   12.9046  -18.7083    0.0000 O   0  0  0  0  0  0  0  0  0  0  0  0
   12.9000  -20.3542    0.0000 O   0  0  0  0  0  0  0  0  0  0  0  0
   14.3335  -19.5333    0.0000 C   0  0  0  0  0  0  0  0  0  0  0  0
   15.0488  -19.9453    0.0000 C   0  0  0  0  0  0  0  0  0  0  0  0
   15.3082  -20.7259    0.0000 C   0  0  0  0  0  0  0  0  0  0  0  0
   16.1332  -20.7204    0.0000 C   0  0  0  0  0  0  0  0  0  0  0  0
   16.3829  -19.9340    0.0000 C   0  0  0  0  0  0  0  0  0  0  0  0
   15.7122  -19.4537    0.0000 O   0  0  0  0  0  0  0  0  0  0  0  0
   17.0917  -19.5167    0.0000 N   0  0  0  0  0  0  0  0  0  0  0  0
   14.9067  -21.4461    0.0000 O   0  0  0  0  0  0  0  0  0  0  0  0
   14.0818  -21.4586    0.0000 P   0  0  0  0  0  0  0  0  0  0  0  0
   13.6802  -22.1792    0.0000 O   0  0  0  0  0  0  0  0  0  0  0  0
   13.6585  -20.7505    0.0000 O   0  0  0  0  0  0  0  0  0  0  0  0
   14.5651  -22.1174    0.0000 O   0  0  0  0  0  0  0  0  0  0  0  0
   16.6226  -21.3846    0.0000 O   0  0  0  0  0  0  0  0  0  0  0  0
   17.7571  -20.0000    0.0000 C   0  0  0  0  0  0  0  0  0  0  0  0
   18.4225  -19.5164    0.0000 N   0  0  0  0  0  0  0  0  0  0  0  0
   17.3457  -18.7344    0.0000 C   0  0  0  0  0  0  0  0  0  0  0  0
   18.1691  -18.7371    0.0000 C   0  0  0  0  0  0  0  0  0  0  0  0
   18.5808  -18.0293    0.0000 C   0  0  0  0  0  0  0  0  0  0  0  0
   18.1737  -17.3143    0.0000 N   0  0  0  0  0  0  0  0  0  0  0  0
   17.3503  -17.3116    0.0000 C   0  0  0  0  0  0  0  0  0  0  0  0
   16.9340  -18.0239    0.0000 N   0  0  0  0  0  0  0  0  0  0  0  0
   19.4058  -18.0332    0.0000 N   0  0  0  0  0  0  0  0  0  0  0  0
    1.4730  -19.5333    0.0000 C   0  0  0  0  0  0  0  0  0  0  0  0
    0.7584  -19.9456    0.0000 C   0  0  0  0  0  0  0  0  0  0  0  0
    1.4730  -18.7083    0.0000 O   0  0  0  0  0  0  0  0  0  0  0  0
    0.0438  -20.3579    0.0000 C   0  0  0  0  0  0  0  0  0  0  0  0
   -0.6764  -20.7602    0.0000 C   0  0  0  0  0  0  0  0  0  0  0  0
   -1.3837  -20.3356    0.0000 C   0  0  0  0  0  0  0  0  0  0  0  0
   -2.1052  -20.7357    0.0000 C   0  0  0  0  0  0  0  0  0  0  0  0
   -2.8125  -20.3110    0.0000 C   0  0  0  0  0  0  0  0  0  0  0  0
   -3.5338  -20.7112    0.0000 C   0  0  0  0  0  0  0  0  0  0  0  0
  3  4  1  0
 13 15  1  0
  6  8  1  0
 13 16  1  0
 29 30  1  0
 30 31  1  0
 31 32  1  0
 32 28  1  0
 31 33  1  1
 13 17  1  0
 29 34  1  6
  8  9  1  0
 34 35  1  0
 15 18  1  0
 35 36  1  0
  4  5  1  0
 35 37  2  0
 18 19  1  0
 35 38  1  0
  9 10  1  0
 30 39  1  6
 33 40  1  0
 19 20  1  0
  2  3  1  0
 40 41  2  0
 41 43  1  0
 42 33  1  0
 42 43  2  0
 19 21  2  0
 10 11  1  0
 19 22  1  0
  5  6  1  0
 20 23  1  0
 10 12  2  0
 42 47  1  0
 43 44  1  0
 44 45  2  0
 45 46  1  0
 46 47  2  0
 23 24  1  0
 44 48  1  0
  1  2  1  0
  1 49  1  0
 23 25  2  0
 49 50  1  0
 11 13  1  0
 49 51  2  0
 23 26  1  0
 50 52  3  0
  5  7  2  0
 52 53  1  0
 24 27  1  0
 53 54  2  0
 11 14  1  0
 54 55  1  0
 28 27  1  1
 55 56  1  0
 28 29  1  0
 56 57  1  0
M  END

> <chembl_id>
CHEMBL1949907

> <chembl_pref_name>
None

$$$$

     RDKit          2D

 29 30  0  0  1  0  0  0  0  0999 V2000
    2.8167  -10.7792    0.0000 N   0  0  0  0  0  0  0  0  0  0  0  0
    2.4333  -10.2500    0.0000 C   0  0  0  0  0  0  0  0  0  0  0  0
    2.4208  -11.3042    0.0000 C   0  0  0  0  0  0  0  0  0  0  0  0
    1.8083  -10.4417    0.0000 C   0  0  0  0  0  0  0  0  0  0  0  0
    1.8042  -11.0958    0.0000 C   0  0  0  0  0  0  0  0  0  0  0  0
    3.3750  -10.4458    0.0000 C   0  0  0  0  0  0  0  0  0  0  0  0
    6.2000  -10.7625    0.0000 C   0  0  0  0  0  0  0  0  0  0  0  0
    3.9458  -10.7667    0.0000 O   0  0  0  0  0  0  0  0  0  0  0  0
    5.6375  -10.4375    0.0000 N   0  0  0  0  0  0  0  0  0  0  0  0
    6.7667  -10.4417    0.0000 C   0  0  0  0  0  0  0  0  0  0  0  0
    4.5042  -10.4375    0.0000 C   0  0  0  0  0  0  0  0  0  0  0  0
    2.4333   -9.6000    0.0000 O   0  0  0  0  0  0  0  0  0  0  0  0
    2.4208  -11.9583    0.0000 O   0  0  0  0  0  0  0  0  0  0  0  0
    6.2000  -11.4208    0.0000 O   0  0  0  0  0  0  0  0  0  0  0  0
    7.3375  -10.7667    0.0000 C   0  0  0  0  0  0  0  0  0  0  0  0
    4.5042   -9.7792    0.0000 O   0  0  0  0  0  0  0  0  0  0  0  0
    5.0708  -10.7625    0.0000 C   0  0  0  0  0  0  0  0  0  0  0  0
    7.8958  -10.4417    0.0000 C   0  0  0  0  0  0  0  0  0  0  0  0
    6.7667   -9.7875    0.0000 C   0  0  0  0  0  0  0  0  0  0  0  0
    7.3375   -9.4583    0.0000 C   0  0  0  0  0  0  0  0  0  0  0  0
    7.8958   -9.7875    0.0000 C   0  0  0  0  0  0  0  0  0  0  0  0
    8.4583  -10.7625    0.0000 I   0  0  0  0  0  0  0  0  0  0  0  0
    1.2417  -10.1125    0.0000 S   0  0  0  0  0  0  0  0  0  0  0  0
   -0.6000  -10.4667    0.0000 N   0  0  0  0  0  0  0  0  0  0  0  0
    0.0120  -10.1125    0.0000 C   0  0  0  0  0  0  0  0  0  0  0  0
    0.6282  -10.4667    0.0000 C   0  0  0  0  0  0  0  0  0  0  0  0
    0.6282  -11.1750    0.0000 O   0  0  0  0  0  0  0  0  0  0  0  0
    0.0120   -9.4042    0.0000 C   0  0  0  0  0  0  0  0  0  0  0  0
    0.6282   -9.0500    0.0000 S   0  0  0  0  0  0  0  0  0  0  0  0
  8  6  1  0
  9 17  1  0
 10  7  1  0
 11  8  1  0
 12  2  2  0
 13  3  2  0
 14  7  2  0
 15 10  2  0
 16 11  2  0
 17 11  1  0
 18 15  1  0
 19 10  1  0
 20 19  2  0
 21 20  1  0
 22 18  1  0
  4  5  1  0
 18 21  2  0
  4 23  1  0
  2  1  1  0
  3  1  1  0
  4  2  1  0
  5  3  1  0
  6  1  1  0
  7  9  1  0
 24 25  1  0
 25 26  1  0
 26 27  2  0
 25 28  1  1
 28 29  1  0
 26 23  1  0
M  END

> <chembl_id>
CHEMBL1909002

> <chembl_pref_name>
None

$$$$

     RDKit          2D

 72 75  0  0  0  0  0  0  0  0999 V2000
   20.6752  -30.4645    0.0000 C   0  0  0  0  0  0  0  0  0  0  0  0
   21.3911  -30.0478    0.0000 C   0  0  0  0  0  0  0  0  0  0  0  0
   22.1028  -30.4645    0.0000 N   0  0  0  0  0  0  0  0  0  0  0  0
   21.3911  -29.2228    0.0000 C   0  0  0  0  0  0  0  0  0  0  0  0
   20.6752  -28.8104    0.0000 C   0  0  0  0  0  0  0  0  0  0  0  0
   20.6752  -27.9854    0.0000 S   0  0  0  0  0  0  0  0  0  0  0  0
   19.9594  -27.5729    0.0000 C   0  0  0  0  0  0  0  0  0  0  0  0
   19.9594  -30.0478    0.0000 O   0  0  0  0  0  0  0  0  0  0  0  0
   20.6752  -31.2895    0.0000 S   0  0  0  0  0  0  0  0  0  0  0  0
   19.9594  -31.7020    0.0000 C   0  0  0  0  0  0  0  0  0  0  0  0
   19.9594  -32.5270    0.0000 C   0  0  0  0  0  0  0  0  0  0  0  0
   19.2435  -32.9395    0.0000 N   0  0  0  0  0  0  0  0  0  0  0  0
   20.6752  -32.9395    0.0000 C   0  0  0  0  0  0  0  0  0  0  0  0
   20.6752  -33.7645    0.0000 O   0  0  0  0  0  0  0  0  0  0  0  0
   21.3911  -32.5270    0.0000 N   0  0  0  0  0  0  0  0  0  0  0  0
   22.1028  -32.9395    0.0000 C   0  0  0  0  0  0  0  0  0  0  0  0
   22.8187  -32.5270    0.0000 C   0  0  0  0  0  0  0  0  0  0  0  0
   22.1028  -33.7645    0.0000 C   0  0  0  0  0  0  0  0  0  0  0  0
   23.5304  -32.9395    0.0000 N   0  0  0  0  0  0  0  0  0  0  0  0
   22.8187  -31.7020    0.0000 O   0  0  0  0  0  0  0  0  0  0  0  0
   24.2462  -32.5270    0.0000 C   0  0  0  0  0  0  0  0  0  0  0  0
   24.9621  -32.9395    0.0000 C   0  0  0  0  0  0  0  0  0  0  0  0
   24.2462  -31.7020    0.0000 C   0  0  0  0  0  0  0  0  0  0  0  0
   24.9621  -33.7645    0.0000 C   0  0  0  0  0  0  0  0  0  0  0  0
   24.2432  -34.1751    0.0000 C   0  0  0  0  0  0  0  0  0  0  0  0
   24.2427  -34.9989    0.0000 C   0  0  0  0  0  0  0  0  0  0  0  0
   24.9594  -35.4127    0.0000 C   0  0  0  0  0  0  0  0  0  0  0  0
   25.6747  -34.9934    0.0000 C   0  0  0  0  0  0  0  0  0  0  0  0
   25.6740  -34.1717    0.0000 C   0  0  0  0  0  0  0  0  0  0  0  0
   24.9621  -31.2895    0.0000 O   0  0  0  0  0  0  0  0  0  0  0  0
   22.8187  -30.0478    0.0000 C   0  0  0  0  0  0  0  0  0  0  0  0
   23.5304  -30.4645    0.0000 C   0  0  0  0  0  0  0  0  0  0  0  0
   22.8187  -29.2228    0.0000 O   0  0  0  0  0  0  0  0  0  0  0  0
   24.2462  -30.0478    0.0000 C   0  0  0  0  0  0  0  0  0  0  0  0
   23.5226  -31.2832    0.0000 N   0  0  0  0  0  0  0  0  0  0  0  0
   24.9621  -30.4645    0.0000 C   0  0  0  0  0  0  0  0  0  0  0  0
   24.2462  -29.2228    0.0000 C   0  0  0  0  0  0  0  0  0  0  0  0
   24.9621  -28.8103    0.0000 C   0  0  0  0  0  0  0  0  0  0  0  0
   18.5318  -32.5270    0.0000 C   0  0  0  0  0  0  0  0  0  0  0  0
   17.8160  -32.9395    0.0000 C   0  0  0  0  0  0  0  0  0  0  0  0
   18.5318  -31.7020    0.0000 O   0  0  0  0  0  0  0  0  0  0  0  0
   17.1001  -32.5270    0.0000 N   0  0  0  0  0  0  0  0  0  0  0  0
   17.8160  -33.7645    0.0000 C   0  0  0  0  0  0  0  0  0  0  0  0
   17.1001  -34.1770    0.0000 C   0  0  0  0  0  0  0  0  0  0  0  0
   18.5318  -34.1770    0.0000 O   0  0  0  0  0  0  0  0  0  0  0  0
   16.3884  -32.9395    0.0000 C   0  0  0  0  0  0  0  0  0  0  0  0
   15.6725  -32.5270    0.0000 C   0  0  0  0  0  0  0  0  0  0  0  0
   16.3884  -33.7645    0.0000 O   0  0  0  0  0  0  0  0  0  0  0  0
   15.6725  -31.7020    0.0000 N   0  0  0  0  0  0  0  0  0  0  0  0
   14.9567  -32.9395    0.0000 C   0  0  0  0  0  0  0  0  0  0  0  0
   14.2450  -32.5270    0.0000 O   0  0  0  0  0  0  0  0  0  0  0  0
   14.9567  -31.2895    0.0000 C   0  0  0  0  0  0  0  0  0  0  0  0
   14.9567  -30.4645    0.0000 C   0  0  0  0  0  0  0  0  0  0  0  0
   14.2450  -31.7020    0.0000 O   0  0  0  0  0  0  0  0  0  0  0  0
   15.6725  -30.0478    0.0000 C   0  0  0  0  0  0  0  0  0  0  0  0
   15.6696  -29.2229    0.0000 C   0  0  0  0  0  0  0  0  0  0  0  0
   16.3826  -28.8078    0.0000 O   0  0  0  0  0  0  0  0  0  0  0  0
   16.3797  -27.9829    0.0000 C   0  0  0  0  0  0  0  0  0  0  0  0
   17.0918  -27.5722    0.0000 C   0  0  0  0  0  0  0  0  0  0  0  0
   17.0893  -26.7480    0.0000 C   0  0  0  0  0  0  0  0  0  0  0  0
   16.3728  -26.3371    0.0000 C   0  0  0  0  0  0  0  0  0  0  0  0
   15.6575  -26.7566    0.0000 C   0  0  0  0  0  0  0  0  0  0  0  0
   15.6635  -27.5794    0.0000 C   0  0  0  0  0  0  0  0  0  0  0  0
   16.3688  -25.5122    0.0000 C   0  0  0  0  0  0  0  0  0  0  0  0
   17.0813  -25.0962    0.0000 C   0  0  0  0  0  0  0  0  0  0  0  0
   17.7956  -25.5096    0.0000 C   0  0  0  0  0  0  0  0  0  0  0  0
   18.5076  -25.0943    0.0000 C   0  0  0  0  0  0  0  0  0  0  0  0
   18.5041  -24.2685    0.0000 C   0  0  0  0  0  0  0  0  0  0  0  0
   17.7826  -23.8596    0.0000 C   0  0  0  0  0  0  0  0  0  0  0  0
   17.0736  -24.2772    0.0000 C   0  0  0  0  0  0  0  0  0  0  0  0
   15.6524  -25.1031    0.0000 O   0  0  0  0  0  0  0  0  0  0  0  0
   24.3949  -30.9671    0.0000 H   0  0  0  0  0  0  0  0  0  0  0  0
  1  2  1  0
  2  3  1  0
  2  4  1  6
  4  5  1  0
  5  6  1  0
  6  7  1  0
  1  8  2  0
  1  9  1  0
  9 10  1  0
 10 11  1  0
 11 12  1  1
 11 13  1  0
 13 14  2  0
 13 15  1  0
 15 16  1  0
 16 17  1  0
 16 18  1  6
 17 19  1  0
 17 20  2  0
 19 21  1  0
 21 22  1  6
 21 23  1  0
 22 24  1  0
 24 25  2  0
 25 26  1  0
 26 27  2  0
 27 28  1  0
 28 29  2  0
 29 24  1  0
 23 30  2  0
 23 35  1  0
  3 31  1  0
 32 31  1  0
 31 33  2  0
 32 34  1  0
 32 35  1  0
 34 36  1  6
 34 37  1  0
 37 38  1  0
 12 39  1  0
 39 40  1  0
 39 41  2  0
 40 42  1  6
 40 43  1  0
 43 44  1  6
 43 45  1  0
 42 46  1  0
 46 47  1  0
 46 48  2  0
 47 49  1  6
 47 50  1  0
 50 51  1  0
 49 52  1  0
 52 53  1  0
 52 54  2  0
 53 55  1  0
 55 56  1  0
 56 57  1  0
 57 58  1  0
 58 59  2  0
 59 60  1  0
 60 61  2  0
 61 62  1  0
 62 63  2  0
 63 58  1  0
 61 64  1  0
 64 65  1  0
 65 66  2  0
 66 67  1  0
 67 68  2  0
 68 69  1  0
 69 70  2  0
 70 65  1  0
 64 71  2  0
 32 72  1  1
M  END

> <chembl_id>
CHEMBL2337546

> <chembl_pref_name>
None

$$$$

     RDKit          2D

 16 15  0  0  1  0  0  0  0  0999 V2000
    5.2875   -6.4250    0.0000 C   0  0  0  0  0  0  0  0  0  0  0  0
    3.8625   -6.4250    0.0000 N   0  0  0  0  0  0  0  0  0  0  0  0
    3.1500   -6.8375    0.0000 C   0  0  0  0  0  0  0  0  0  0  0  0
    4.5750   -6.8375    0.0000 C   0  0  0  0  0  0  0  0  0  0  0  0
    8.8500   -6.8375    0.0000 C   0  0  0  0  0  0  0  0  0  0  0  0
    5.2875   -5.6000    0.0000 O   0  0  0  0  0  0  0  0  0  0  0  0
    3.1500   -7.6625    0.0000 O   0  0  0  0  0  0  0  0  0  0  0  0
    8.8500   -7.6625    0.0000 O   0  0  0  0  0  0  0  0  0  0  0  0
    6.0000   -6.8375    0.0000 N   0  0  0  0  0  0  0  0  0  0  0  0
    8.1375   -6.4250    0.0000 S   0  0  0  0  0  0  0  0  0  0  0  0
    1.7167   -6.8375    0.0000 N   0  0  0  0  0  0  0  0  0  0  0  0
    2.4292   -6.4250    0.0000 C   0  0  0  0  0  0  0  0  0  0  0  0
    9.5625   -6.4250    0.0000 C   0  0  0  0  0  0  0  0  0  0  0  0
    4.5750   -7.6625    0.0000 C   0  0  0  0  0  0  0  0  0  0  0  0
    6.7125   -6.4250    0.0000 C   0  0  0  0  0  0  0  0  0  0  0  0
    7.4250   -6.8375    0.0000 C   0  0  0  0  0  0  0  0  0  0  0  0
  2  4  1  0
  3  2  1  0
  4  1  1  0
  5 10  1  0
  6  1  2  0
  7  3  2  0
  8  5  2  0
  9  1  1  0
 10 16  1  0
 11 12  1  0
 12  3  1  0
 13  5  1  0
  4 14  1  6
 15  9  1  0
 16 15  1  0
M  END

> <chembl_id>
CHEMBL99964

> <chembl_pref_name>
None

$$$$

     RDKit          2D

 47 49  0  0  0  0  0  0  0  0999 V2000
   11.3959  -22.6713    0.0000 O   0  0  0  0  0  0  0  0  0  0  0  0
    7.6854  -21.9538    0.0000 C   0  0  0  0  0  0  0  0  0  0  0  0
    8.5085  -17.6701    0.0000 C   0  0  0  0  0  0  0  0  0  0  0  0
    9.7460  -19.8134    0.0000 N   0  0  0  0  0  0  0  0  0  0  0  0
    9.7460  -21.2424    0.0000 C   0  0  0  0  0  0  0  0  0  0  0  0
    7.2592  -20.0571    0.0000 C   0  0  0  0  0  0  0  0  0  0  0  0
    7.6855  -23.3829    0.0000 C   0  0  0  0  0  0  0  0  0  0  0  0
    6.8428  -17.6701    0.0000 C   0  0  0  0  0  0  0  0  0  0  0  0
    7.9780  -18.8120    0.0000 C   0  0  0  0  0  0  0  0  0  0  0  0
    8.9235  -22.6660    0.0000 C   0  0  0  0  0  0  0  0  0  0  0  0
    6.5403  -18.8120    0.0000 C   0  0  0  0  0  0  0  0  0  0  0  0
   10.1584  -21.9569    0.0000 N   0  0  0  0  0  0  0  0  0  0  0  0
   10.9835  -19.0990    0.0000 C   0  0  0  0  0  0  0  0  0  0  0  0
    6.0098  -17.6701    0.0000 N   0  0  0  0  0  0  0  0  0  0  0  0
    8.9210  -18.3845    0.0000 S   0  0  0  0  0  0  0  0  0  0  0  0
   10.1585  -19.0990    0.0000 C   0  0  0  0  0  0  0  0  0  0  0  0
    4.7684  -16.9487    0.0000 O   0  0  0  0  0  0  0  0  0  0  0  0
    6.5403  -19.6448    0.0000 C   0  0  0  0  0  0  0  0  0  0  0  0
    3.9374  -15.5165    0.0000 C   0  0  0  0  0  0  0  0  0  0  0  0
   11.3960  -18.3845    0.0000 O   0  0  0  0  0  0  0  0  0  0  0  0
    8.9210  -21.2424    0.0000 C   0  0  0  0  0  0  0  0  0  0  0  0
    5.5934  -16.9487    0.0000 C   0  0  0  0  0  0  0  0  0  0  0  0
   10.9834  -20.5280    0.0000 O   0  0  0  0  0  0  0  0  0  0  0  0
    7.6757  -17.6701    0.0000 C   0  0  0  0  0  0  0  0  0  0  0  0
    9.7460  -18.3845    0.0000 C   0  0  0  0  0  0  0  0  0  0  0  0
    8.5147  -23.3802    0.0000 C   0  0  0  0  0  0  0  0  0  0  0  0
   10.1585  -20.5279    0.0000 C   0  0  0  0  0  0  0  0  0  0  0  0
    8.9250  -16.9487    0.0000 O   0  0  0  0  0  0  0  0  0  0  0  0
    7.2592  -18.3914    0.0000 C   0  0  0  0  0  0  0  0  0  0  0  0
   11.3959  -19.8134    0.0000 O   0  0  0  0  0  0  0  0  0  0  0  0
    7.2730  -22.6674    0.0000 C   0  0  0  0  0  0  0  0  0  0  0  0
    7.9780  -19.6448    0.0000 C   0  0  0  0  0  0  0  0  0  0  0  0
    4.3560  -16.2343    0.0000 C   0  0  0  0  0  0  0  0  0  0  0  0
    4.7684  -15.5198    0.0000 C   0  0  0  0  0  0  0  0  0  0  0  0
    8.5085  -21.9569    0.0000 C   0  0  0  0  0  0  0  0  0  0  0  0
   12.2209  -18.3845    0.0000 C   0  0  0  0  0  0  0  0  0  0  0  0
    3.5310  -16.2343    0.0000 C   0  0  0  0  0  0  0  0  0  0  0  0
    6.0098  -16.2275    0.0000 O   0  0  0  0  0  0  0  0  0  0  0  0
   10.9834  -21.9569    0.0000 C   0  0  0  0  0  0  0  0  0  0  0  0
   11.3959  -21.2424    0.0000 O   0  0  0  0  0  0  0  0  0  0  0  0
   12.2209  -22.6713    0.0000 C   0  0  0  0  0  0  0  0  0  0  0  0
   12.6334  -23.3858    0.0000 C   0  0  0  0  0  0  0  0  0  0  0  0
   12.2191  -24.0973    0.0000 C   0  0  0  0  0  0  0  0  0  0  0  0
   12.6309  -24.8113    0.0000 C   0  0  0  0  0  0  0  0  0  0  0  0
   13.4568  -24.8118    0.0000 C   0  0  0  0  0  0  0  0  0  0  0  0
   13.8691  -24.0923    0.0000 C   0  0  0  0  0  0  0  0  0  0  0  0
   13.4550  -23.3813    0.0000 C   0  0  0  0  0  0  0  0  0  0  0  0
 29  8  1  0
  8 14  1  0
 13 20  1  0
 31  7  2  0
 18  6  1  0
  7 26  1  0
  4 27  1  0
 27  5  1  0
 27 23  2  0
 16 25  1  1
 14 22  1  0
 24 29  1  0
 10 35  1  0
 11 29  1  0
 17 33  1  0
 33 19  1  0
 21 35  1  0
 35  2  2  0
 32  9  1  0
 16  4  1  0
  5 21  1  1
 24  3  1  0
  2 31  1  0
  5 12  1  0
 22 38  2  0
 20 36  1  0
 16 13  1  0
 22 17  1  0
 13 30  2  0
  3 15  1  0
 33 37  1  0
 15 25  1  0
 26 10  2  0
  9 29  1  0
  3 28  2  0
 11 18  1  0
 33 34  1  0
  6 32  1  0
 12 39  1  0
 39  1  1  0
 39 40  2  0
  1 41  1  0
 41 42  1  0
 42 43  2  0
 43 44  1  0
 44 45  2  0
 45 46  1  0
 46 47  2  0
 47 42  1  0
M  END

> <chembl_id>
CHEMBL3115490

> <chembl_pref_name>
None

$$$$

     RDKit          2D

 62 65  0  0  0  0  0  0  0  0999 V2000
    4.2147  -29.3714    0.0000 O   0  0  0  0  0  0  0  0  0  0  0  0
    3.5013  -28.9573    0.0000 C   0  0  0  0  0  0  0  0  0  0  0  0
    2.7858  -29.3681    0.0000 C   0  0  0  0  0  0  0  0  0  0  0  0
    2.0723  -28.9539    0.0000 C   0  0  0  0  0  0  0  0  0  0  0  0
    2.4033  -30.0956    0.0000 C   0  0  0  0  0  0  0  0  0  0  0  0
    3.2301  -30.0564    0.0000 C   0  0  0  0  0  0  0  0  0  0  0  0
    1.3569  -29.3647    0.0000 O   0  0  0  0  0  0  0  0  0  0  0  0
    2.0743  -28.1289    0.0000 C   0  0  0  0  0  0  0  0  0  0  0  0
    2.7897  -27.7181    0.0000 N   0  0  0  0  0  0  0  0  0  0  0  0
    1.3608  -27.7147    0.0000 O   0  0  0  0  0  0  0  0  0  0  0  0
    2.7881  -26.8869    0.0000 C   0  0  0  0  0  0  0  0  0  0  0  0
    3.4952  -26.4620    0.0000 C   0  0  0  0  0  0  0  0  0  0  0  0
    4.2168  -26.8620    0.0000 C   0  0  0  0  0  0  0  0  0  0  0  0
    4.9240  -26.4371    0.0000 N   0  0  0  0  0  0  0  0  0  0  0  0
    4.2312  -27.6868    0.0000 O   0  0  0  0  0  0  0  0  0  0  0  0
    5.6455  -26.8371    0.0000 C   0  0  0  0  0  0  0  0  0  0  0  0
    6.3521  -26.4041    0.0000 C   0  0  0  0  0  0  0  0  0  0  0  0
    6.3517  -25.5791    0.0000 S   0  0  0  0  0  0  0  0  0  0  0  0
    7.7802  -31.4413    0.0000 C   0  0  0  0  0  0  0  0  0  0  0  0
    8.5643  -31.6978    0.0000 C   0  0  0  0  0  0  0  0  0  0  0  0
    9.0522  -31.0324    0.0000 C   0  0  0  0  0  0  0  0  0  0  0  0
    8.5675  -30.3617    0.0000 O   0  0  0  0  0  0  0  0  0  0  0  0
    7.7841  -30.6175    0.0000 C   0  0  0  0  0  0  0  0  0  0  0  0
    9.8772  -31.0353    0.0000 N   0  0  0  0  0  0  0  0  0  0  0  0
    8.8168  -32.4833    0.0000 O   0  0  0  0  0  0  0  0  0  0  0  0
    7.1112  -31.9240    0.0000 O   0  0  0  0  0  0  0  0  0  0  0  0
    7.0707  -30.2032    0.0000 C   0  0  0  0  0  0  0  0  0  0  0  0
    7.0726  -29.3782    0.0000 O   0  0  0  0  0  0  0  0  0  0  0  0
    6.3591  -28.9640    0.0000 P   0  0  0  0  0  0  0  0  0  0  0  0
   10.3601  -31.7011    0.0000 C   0  0  0  0  0  0  0  0  0  0  0  0
   11.1456  -31.4489    0.0000 N   0  0  0  0  0  0  0  0  0  0  0  0
   10.3647  -30.3663    0.0000 C   0  0  0  0  0  0  0  0  0  0  0  0
   11.1475  -30.6246    0.0000 C   0  0  0  0  0  0  0  0  0  0  0  0
   11.7606  -30.0763    0.0000 C   0  0  0  0  0  0  0  0  0  0  0  0
   11.5920  -29.2696    0.0000 N   0  0  0  0  0  0  0  0  0  0  0  0
   10.8050  -29.0141    0.0000 C   0  0  0  0  0  0  0  0  0  0  0  0
   10.1953  -29.5641    0.0000 N   0  0  0  0  0  0  0  0  0  0  0  0
   12.5443  -30.3339    0.0000 N   0  0  0  0  0  0  0  0  0  0  0  0
    5.6437  -29.3748    0.0000 O   0  0  0  0  0  0  0  0  0  0  0  0
    4.9302  -28.9606    0.0000 P   0  0  0  0  0  0  0  0  0  0  0  0
    4.5125  -28.2417    0.0000 O   0  0  0  0  0  0  0  0  0  0  0  0
    5.3375  -28.2417    0.0000 O   0  0  0  0  0  0  0  0  0  0  0  0
    6.1417  -28.1625    0.0000 O   0  0  0  0  0  0  0  0  0  0  0  0
    6.9417  -28.3750    0.0000 O   0  0  0  0  0  0  0  0  0  0  0  0
    7.0842  -32.7489    0.0000 P   0  0  0  0  0  0  0  0  0  0  0  0
    6.3568  -33.1382    0.0000 O   0  0  0  0  0  0  0  0  0  0  0  0
    7.8992  -32.6367    0.0000 O   0  0  0  0  0  0  0  0  0  0  0  0
    7.3914  -33.5060    0.0000 O   0  0  0  0  0  0  0  0  0  0  0  0
    7.0660  -25.1663    0.0000 C   0  0  0  0  0  0  0  0  0  0  0  0
    7.0656  -24.3413    0.0000 C   0  0  0  0  0  0  0  0  0  0  0  0
    6.3510  -23.9291    0.0000 C   0  0  0  0  0  0  0  0  0  0  0  0
    7.7806  -25.5785    0.0000 O   0  0  0  0  0  0  0  0  0  0  0  0
    6.3506  -23.1041    0.0000 C   0  0  0  0  0  0  0  0  0  0  0  0
    5.6360  -22.6919    0.0000 O   0  0  0  0  0  0  0  0  0  0  0  0
    7.0649  -22.6913    0.0000 C   0  0  0  0  0  0  0  0  0  0  0  0
    7.7746  -23.1066    0.0000 C   0  0  0  0  0  0  0  0  0  0  0  0
    8.4884  -22.6945    0.0000 C   0  0  0  0  0  0  0  0  0  0  0  0
    8.4885  -21.8686    0.0000 C   0  0  0  0  0  0  0  0  0  0  0  0
    7.7688  -21.4566    0.0000 C   0  0  0  0  0  0  0  0  0  0  0  0
    7.0580  -21.8711    0.0000 C   0  0  0  0  0  0  0  0  0  0  0  0
    7.7722  -23.9316    0.0000 Cl  0  0  0  0  0  0  0  0  0  0  0  0
    9.2023  -21.4549    0.0000 Cl  0  0  0  0  0  0  0  0  0  0  0  0
 31 33  1  0
 32 24  1  0
 14 16  1  0
 32 33  2  0
 16 17  1  0
 33 34  1  0
  8  9  1  0
 34 35  2  0
 17 18  1  0
 35 36  1  0
 19 20  1  0
 36 37  2  0
 37 32  1  0
  3  5  1  0
 34 38  1  0
  8 10  2  0
 29 39  1  0
  2  3  1  0
 39 40  1  0
 40  1  1  0
  9 11  1  0
 40 41  1  0
  3  6  1  0
 40 42  2  0
 20 21  1  0
 29 43  2  0
 21 22  1  0
 29 44  1  0
 22 23  1  0
 26 45  1  0
 23 19  1  0
 45 46  1  0
 11 12  1  0
 45 47  2  0
 21 24  1  1
 45 48  1  0
  1  2  1  0
 18 49  1  0
 20 25  1  6
 49 50  1  0
 12 13  1  0
 50 51  1  0
 19 26  1  6
 49 52  2  0
  4  7  1  1
 51 53  1  0
 23 27  1  1
 53 54  2  0
 13 14  1  0
 53 55  1  0
 27 28  1  0
 55 56  2  0
  3  4  1  0
 56 57  1  0
 28 29  1  0
 57 58  2  0
 24 30  1  0
 58 59  1  0
 13 15  2  0
 59 60  2  0
 60 55  1  0
  4  8  1  0
 56 61  1  0
 30 31  2  0
 58 62  1  0
M  END

> <chembl_id>
CHEMBL2024345

> <chembl_pref_name>
None

$$$$

     RDKit          2D

 55 57  0  0  0  0  0  0  0  0999 V2000
   -0.3750   -3.8167    0.0000 S   0  0  0  0  0  0  0  0  0  0  0  0
    0.3395   -3.4042    0.0000 C   0  0  0  0  0  0  0  0  0  0  0  0
    1.0539   -3.8167    0.0000 C   0  0  0  0  0  0  0  0  0  0  0  0
    1.7684   -3.4042    0.0000 N   0  0  0  0  0  0  0  0  0  0  0  0
    2.4829   -3.8167    0.0000 C   0  0  0  0  0  0  0  0  0  0  0  0
    3.1974   -3.4042    0.0000 C   0  0  0  0  0  0  0  0  0  0  0  0
    2.4829   -4.6417    0.0000 O   0  0  0  0  0  0  0  0  0  0  0  0
    3.9118   -3.8167    0.0000 C   0  0  0  0  0  0  0  0  0  0  0  0
    4.6263   -3.4042    0.0000 N   0  0  0  0  0  0  0  0  0  0  0  0
    5.3408   -3.8167    0.0000 C   0  0  0  0  0  0  0  0  0  0  0  0
    6.0552   -3.4042    0.0000 C   0  0  0  0  0  0  0  0  0  0  0  0
    5.3408   -4.6417    0.0000 O   0  0  0  0  0  0  0  0  0  0  0  0
    6.7697   -3.8167    0.0000 C   0  0  0  0  0  0  0  0  0  0  0  0
    6.0552   -2.5792    0.0000 O   0  0  0  0  0  0  0  0  0  0  0  0
    7.4842   -3.4042    0.0000 C   0  0  0  0  0  0  0  0  0  0  0  0
    6.3500   -4.5250    0.0000 C   0  0  0  0  0  0  0  0  0  0  0  0
    7.1750   -4.5250    0.0000 C   0  0  0  0  0  0  0  0  0  0  0  0
    8.1987   -3.8167    0.0000 O   0  0  0  0  0  0  0  0  0  0  0  0
    8.9131   -3.4042    0.0000 P   0  0  0  0  0  0  0  0  0  0  0  0
    9.6276   -3.8167    0.0000 O   0  0  0  0  0  0  0  0  0  0  0  0
    8.9083   -2.5750    0.0000 O   0  0  0  0  0  0  0  0  0  0  0  0
    8.9083   -4.2250    0.0000 O   0  0  0  0  0  0  0  0  0  0  0  0
   10.3421   -3.4042    0.0000 P   0  0  0  0  0  0  0  0  0  0  0  0
   11.0565   -3.8167    0.0000 O   0  0  0  0  0  0  0  0  0  0  0  0
   10.3421   -2.5792    0.0000 O   0  0  0  0  0  0  0  0  0  0  0  0
   10.3375   -4.2250    0.0000 O   0  0  0  0  0  0  0  0  0  0  0  0
   11.7710   -3.4042    0.0000 C   0  0  0  0  0  0  0  0  0  0  0  0
   12.4863   -3.8161    0.0000 C   0  0  0  0  0  0  0  0  0  0  0  0
   12.7457   -4.5967    0.0000 C   0  0  0  0  0  0  0  0  0  0  0  0
   13.5707   -4.5912    0.0000 C   0  0  0  0  0  0  0  0  0  0  0  0
   13.8204   -3.8049    0.0000 C   0  0  0  0  0  0  0  0  0  0  0  0
   13.1497   -3.3245    0.0000 O   0  0  0  0  0  0  0  0  0  0  0  0
   14.5292   -3.3875    0.0000 N   0  0  0  0  0  0  0  0  0  0  0  0
   12.3442   -5.3169    0.0000 O   0  0  0  0  0  0  0  0  0  0  0  0
   11.5193   -5.3294    0.0000 P   0  0  0  0  0  0  0  0  0  0  0  0
   11.1177   -6.0501    0.0000 O   0  0  0  0  0  0  0  0  0  0  0  0
   11.0960   -4.6213    0.0000 O   0  0  0  0  0  0  0  0  0  0  0  0
   12.0026   -5.9883    0.0000 O   0  0  0  0  0  0  0  0  0  0  0  0
   14.0601   -5.2554    0.0000 O   0  0  0  0  0  0  0  0  0  0  0  0
   15.1946   -3.8708    0.0000 C   0  0  0  0  0  0  0  0  0  0  0  0
   15.8600   -3.3872    0.0000 N   0  0  0  0  0  0  0  0  0  0  0  0
   14.7832   -2.6053    0.0000 C   0  0  0  0  0  0  0  0  0  0  0  0
   15.6066   -2.6080    0.0000 C   0  0  0  0  0  0  0  0  0  0  0  0
   16.0183   -1.9002    0.0000 C   0  0  0  0  0  0  0  0  0  0  0  0
   15.6112   -1.1851    0.0000 N   0  0  0  0  0  0  0  0  0  0  0  0
   14.7878   -1.1824    0.0000 C   0  0  0  0  0  0  0  0  0  0  0  0
   14.3715   -1.8948    0.0000 N   0  0  0  0  0  0  0  0  0  0  0  0
   16.8433   -1.9040    0.0000 N   0  0  0  0  0  0  0  0  0  0  0  0
   -1.0895   -3.4042    0.0000 C   0  0  0  0  0  0  0  0  0  0  0  0
   -1.8039   -3.8167    0.0000 C   0  0  0  0  0  0  0  0  0  0  0  0
   -1.0895   -2.5792    0.0000 O   0  0  0  0  0  0  0  0  0  0  0  0
   -2.5184   -3.4042    0.0000 C   0  0  0  0  0  0  0  0  0  0  0  0
   -3.2329   -3.8167    0.0000 C   0  0  0  0  0  0  0  0  0  0  0  0
   -3.9474   -3.4042    0.0000 C   0  0  0  0  0  0  0  0  0  0  0  0
   -4.6618   -3.8167    0.0000 C   0  0  0  0  0  0  0  0  0  0  0  0
 28 27  1  1
 28 29  1  0
  3  4  1  0
 13 15  1  0
  6  8  1  0
 13 16  1  0
 29 30  1  0
 30 31  1  0
 31 32  1  0
 32 28  1  0
 31 33  1  1
 13 17  1  0
 29 34  1  6
  8  9  1  0
 34 35  1  0
 15 18  1  0
 35 36  1  0
  4  5  1  0
 35 37  2  0
 18 19  1  0
 35 38  1  0
  9 10  1  0
 30 39  1  6
 33 40  1  0
 19 20  1  0
  2  3  1  0
 40 41  2  0
 41 43  1  0
 42 33  1  0
 42 43  2  0
 19 21  2  0
 10 11  1  0
 19 22  1  0
  5  6  1  0
 20 23  1  0
 10 12  2  0
 42 47  1  0
 43 44  1  0
 44 45  2  0
 45 46  1  0
 46 47  2  0
 23 24  1  0
 44 48  1  0
  1  2  1  0
  1 49  1  0
 23 25  2  0
 49 50  1  0
 11 13  1  0
 49 51  2  0
 23 26  1  0
 50 52  1  0
  5  7  2  0
 52 53  1  0
 24 27  1  0
 53 54  1  0
 11 14  1  0
 54 55  1  0
M  END

> <chembl_id>
CHEMBL1949895

> <chembl_pref_name>
Hexanoyl-CoA

$$$$

     RDKit          2D

 57 59  0  0  0  0  0  0  0  0999 V2000
    2.3125  -13.5125    0.0000 S   0  0  0  0  0  0  0  0  0  0  0  0
    3.0270  -13.1000    0.0000 C   0  0  0  0  0  0  0  0  0  0  0  0
    3.7414  -13.5125    0.0000 C   0  0  0  0  0  0  0  0  0  0  0  0
    4.4559  -13.1000    0.0000 N   0  0  0  0  0  0  0  0  0  0  0  0
    5.1704  -13.5125    0.0000 C   0  0  0  0  0  0  0  0  0  0  0  0
    5.8849  -13.1000    0.0000 C   0  0  0  0  0  0  0  0  0  0  0  0
    5.1704  -14.3375    0.0000 O   0  0  0  0  0  0  0  0  0  0  0  0
    6.5993  -13.5125    0.0000 C   0  0  0  0  0  0  0  0  0  0  0  0
    7.3138  -13.1000    0.0000 N   0  0  0  0  0  0  0  0  0  0  0  0
    8.0283  -13.5125    0.0000 C   0  0  0  0  0  0  0  0  0  0  0  0
    8.7427  -13.1000    0.0000 C   0  0  0  0  0  0  0  0  0  0  0  0
    8.0283  -14.3375    0.0000 O   0  0  0  0  0  0  0  0  0  0  0  0
    9.4572  -13.5125    0.0000 C   0  0  0  0  0  0  0  0  0  0  0  0
    8.7427  -12.2750    0.0000 O   0  0  0  0  0  0  0  0  0  0  0  0
   10.1717  -13.1000    0.0000 C   0  0  0  0  0  0  0  0  0  0  0  0
    9.0375  -14.2208    0.0000 C   0  0  0  0  0  0  0  0  0  0  0  0
    9.8625  -14.2208    0.0000 C   0  0  0  0  0  0  0  0  0  0  0  0
   10.8862  -13.5125    0.0000 O   0  0  0  0  0  0  0  0  0  0  0  0
   11.6006  -13.1000    0.0000 P   0  0  0  0  0  0  0  0  0  0  0  0
   12.3151  -13.5125    0.0000 O   0  0  0  0  0  0  0  0  0  0  0  0
   11.5958  -12.2708    0.0000 O   0  0  0  0  0  0  0  0  0  0  0  0
   11.5958  -13.9208    0.0000 O   0  0  0  0  0  0  0  0  0  0  0  0
   13.0296  -13.1000    0.0000 P   0  0  0  0  0  0  0  0  0  0  0  0
   13.7440  -13.5125    0.0000 O   0  0  0  0  0  0  0  0  0  0  0  0
   13.0296  -12.2750    0.0000 O   0  0  0  0  0  0  0  0  0  0  0  0
   13.0250  -13.9208    0.0000 O   0  0  0  0  0  0  0  0  0  0  0  0
   14.4585  -13.1000    0.0000 C   0  0  0  0  0  0  0  0  0  0  0  0
   15.1738  -13.5119    0.0000 C   0  0  0  0  0  0  0  0  0  0  0  0
   15.4332  -14.2926    0.0000 C   0  0  0  0  0  0  0  0  0  0  0  0
   16.2582  -14.2871    0.0000 C   0  0  0  0  0  0  0  0  0  0  0  0
   16.5079  -13.5007    0.0000 C   0  0  0  0  0  0  0  0  0  0  0  0
   15.8372  -13.0204    0.0000 O   0  0  0  0  0  0  0  0  0  0  0  0
   17.2167  -13.0833    0.0000 N   0  0  0  0  0  0  0  0  0  0  0  0
   15.0317  -15.0127    0.0000 O   0  0  0  0  0  0  0  0  0  0  0  0
   14.2068  -15.0253    0.0000 P   0  0  0  0  0  0  0  0  0  0  0  0
   13.8052  -15.7459    0.0000 O   0  0  0  0  0  0  0  0  0  0  0  0
   13.7835  -14.3171    0.0000 O   0  0  0  0  0  0  0  0  0  0  0  0
   14.6901  -15.6841    0.0000 O   0  0  0  0  0  0  0  0  0  0  0  0
   16.7476  -14.9512    0.0000 O   0  0  0  0  0  0  0  0  0  0  0  0
   17.8821  -13.5666    0.0000 C   0  0  0  0  0  0  0  0  0  0  0  0
   18.5475  -13.0831    0.0000 N   0  0  0  0  0  0  0  0  0  0  0  0
   17.4707  -12.3011    0.0000 C   0  0  0  0  0  0  0  0  0  0  0  0
   18.2941  -12.3038    0.0000 C   0  0  0  0  0  0  0  0  0  0  0  0
   18.7058  -11.5960    0.0000 C   0  0  0  0  0  0  0  0  0  0  0  0
   18.2987  -10.8810    0.0000 N   0  0  0  0  0  0  0  0  0  0  0  0
   17.4753  -10.8783    0.0000 C   0  0  0  0  0  0  0  0  0  0  0  0
   17.0590  -11.5906    0.0000 N   0  0  0  0  0  0  0  0  0  0  0  0
   19.5308  -11.5998    0.0000 N   0  0  0  0  0  0  0  0  0  0  0  0
    1.5980  -13.1000    0.0000 C   0  0  0  0  0  0  0  0  0  0  0  0
    0.8834  -13.5123    0.0000 C   0  0  0  0  0  0  0  0  0  0  0  0
    1.5980  -12.2750    0.0000 O   0  0  0  0  0  0  0  0  0  0  0  0
    0.1688  -13.9246    0.0000 C   0  0  0  0  0  0  0  0  0  0  0  0
   -0.5514  -14.3269    0.0000 C   0  0  0  0  0  0  0  0  0  0  0  0
   -1.2587  -13.9022    0.0000 C   0  0  0  0  0  0  0  0  0  0  0  0
   -1.9802  -14.3024    0.0000 C   0  0  0  0  0  0  0  0  0  0  0  0
   -2.6875  -13.8777    0.0000 C   0  0  0  0  0  0  0  0  0  0  0  0
   -3.4088  -14.2779    0.0000 C   0  0  0  0  0  0  0  0  0  0  0  0
  3  4  1  0
 13 15  1  0
  6  8  1  0
 13 16  1  0
 29 30  1  0
 30 31  1  0
 31 32  1  0
 32 28  1  0
 31 33  1  1
 13 17  1  0
 29 34  1  6
  8  9  1  0
 34 35  1  0
 15 18  1  0
 35 36  1  0
  4  5  1  0
 35 37  2  0
 18 19  1  0
 35 38  1  0
  9 10  1  0
 30 39  1  6
 33 40  1  0
 19 20  1  0
  2  3  1  0
 40 41  2  0
 41 43  1  0
 42 33  1  0
 42 43  2  0
 19 21  2  0
 10 11  1  0
 19 22  1  0
  5  6  1  0
 20 23  1  0
 10 12  2  0
 42 47  1  0
 43 44  1  0
 44 45  2  0
 45 46  1  0
 46 47  2  0
 23 24  1  0
 44 48  1  0
  1  2  1  0
  1 49  1  0
 23 25  2  0
 49 50  1  0
 11 13  1  0
 49 51  2  0
 23 26  1  0
 50 52  3  0
  5  7  2  0
 52 53  1  0
 24 27  1  0
 53 54  1  0
 11 14  1  0
 54 55  1  0
 28 27  1  1
 55 56  1  0
 28 29  1  0
 56 57  1  0
M  END

> <chembl_id>
CHEMBL1949906

> <chembl_pref_name>
None

$$$$

     RDKit          2D

 53 55  0  0  0  0  0  0  0  0999 V2000
   -1.5917    0.9042    0.0000 S   0  0  0  0  0  0  0  0  0  0  0  0
   -0.8772    1.3167    0.0000 C   0  0  0  0  0  0  0  0  0  0  0  0
   -0.1627    0.9042    0.0000 C   0  0  0  0  0  0  0  0  0  0  0  0
    0.5517    1.3167    0.0000 N   0  0  0  0  0  0  0  0  0  0  0  0
    1.2662    0.9042    0.0000 C   0  0  0  0  0  0  0  0  0  0  0  0
    1.9807    1.3167    0.0000 C   0  0  0  0  0  0  0  0  0  0  0  0
    1.2662    0.0792    0.0000 O   0  0  0  0  0  0  0  0  0  0  0  0
    2.6952    0.9042    0.0000 C   0  0  0  0  0  0  0  0  0  0  0  0
    3.4096    1.3167    0.0000 N   0  0  0  0  0  0  0  0  0  0  0  0
    4.1241    0.9042    0.0000 C   0  0  0  0  0  0  0  0  0  0  0  0
    4.8386    1.3167    0.0000 C   0  0  0  0  0  0  0  0  0  0  0  0
    4.1241    0.0792    0.0000 O   0  0  0  0  0  0  0  0  0  0  0  0
    5.5530    0.9042    0.0000 C   0  0  0  0  0  0  0  0  0  0  0  0
    4.8386    2.1417    0.0000 O   0  0  0  0  0  0  0  0  0  0  0  0
    6.2675    1.3167    0.0000 C   0  0  0  0  0  0  0  0  0  0  0  0
    5.1333    0.1958    0.0000 C   0  0  0  0  0  0  0  0  0  0  0  0
    5.9583    0.1958    0.0000 C   0  0  0  0  0  0  0  0  0  0  0  0
    6.9820    0.9042    0.0000 O   0  0  0  0  0  0  0  0  0  0  0  0
    7.6965    1.3167    0.0000 P   0  0  0  0  0  0  0  0  0  0  0  0
    8.4109    0.9042    0.0000 O   0  0  0  0  0  0  0  0  0  0  0  0
    7.6917    2.1458    0.0000 O   0  0  0  0  0  0  0  0  0  0  0  0
    9.1254    1.3167    0.0000 P   0  0  0  0  0  0  0  0  0  0  0  0
    9.8399    0.9042    0.0000 O   0  0  0  0  0  0  0  0  0  0  0  0
    9.1254    2.1417    0.0000 O   0  0  0  0  0  0  0  0  0  0  0  0
    9.1208    0.4958    0.0000 O   0  0  0  0  0  0  0  0  0  0  0  0
   10.5543    1.3167    0.0000 C   0  0  0  0  0  0  0  0  0  0  0  0
   11.2697    0.9047    0.0000 C   0  0  0  0  0  0  0  0  0  0  0  0
   11.5291    0.1241    0.0000 C   0  0  0  0  0  0  0  0  0  0  0  0
   12.3540    0.1296    0.0000 C   0  0  0  0  0  0  0  0  0  0  0  0
   12.6038    0.9160    0.0000 C   0  0  0  0  0  0  0  0  0  0  0  0
   11.9330    1.3963    0.0000 O   0  0  0  0  0  0  0  0  0  0  0  0
   13.3125    1.3333    0.0000 N   0  0  0  0  0  0  0  0  0  0  0  0
   11.1275   -0.5961    0.0000 O   0  0  0  0  0  0  0  0  0  0  0  0
   10.3026   -0.6086    0.0000 P   0  0  0  0  0  0  0  0  0  0  0  0
    9.9010   -1.3292    0.0000 O   0  0  0  0  0  0  0  0  0  0  0  0
    9.8793    0.0995    0.0000 O   0  0  0  0  0  0  0  0  0  0  0  0
   10.7859   -1.2674    0.0000 O   0  0  0  0  0  0  0  0  0  0  0  0
   12.8434   -0.5346    0.0000 O   0  0  0  0  0  0  0  0  0  0  0  0
   13.9780    0.8500    0.0000 C   0  0  0  0  0  0  0  0  0  0  0  0
   14.6433    1.3336    0.0000 N   0  0  0  0  0  0  0  0  0  0  0  0
   13.5665    2.1156    0.0000 C   0  0  0  0  0  0  0  0  0  0  0  0
   14.3899    2.1129    0.0000 C   0  0  0  0  0  0  0  0  0  0  0  0
   14.8016    2.8207    0.0000 C   0  0  0  0  0  0  0  0  0  0  0  0
   14.3945    3.5357    0.0000 N   0  0  0  0  0  0  0  0  0  0  0  0
   13.5712    3.5384    0.0000 C   0  0  0  0  0  0  0  0  0  0  0  0
   13.1548    2.8261    0.0000 N   0  0  0  0  0  0  0  0  0  0  0  0
   15.6266    2.8168    0.0000 N   0  0  0  0  0  0  0  0  0  0  0  0
   -2.3061    1.3167    0.0000 C   0  0  0  0  0  0  0  0  0  0  0  0
   -3.0206    0.9042    0.0000 C   0  0  0  0  0  0  0  0  0  0  0  0
   -2.3061    2.1417    0.0000 O   0  0  0  0  0  0  0  0  0  0  0  0
   -3.7351    1.3167    0.0000 C   0  0  0  0  0  0  0  0  0  0  0  0
   -4.4496    0.9042    0.0000 C   0  0  0  0  0  0  0  0  0  0  0  0
    7.6917    0.4958    0.0000 O   0  0  0  0  0  0  0  0  0  0  0  0
 23 26  1  0
 11 14  1  0
 27 26  1  1
 27 28  1  0
  3  4  1  0
 13 15  1  0
  6  8  1  0
 13 16  1  0
 28 29  1  0
 29 30  1  0
 30 31  1  0
 31 27  1  0
 30 32  1  1
 13 17  1  0
 28 33  1  6
  8  9  1  0
 33 34  1  0
 15 18  1  0
 34 35  1  0
  4  5  1  0
 34 36  2  0
 18 19  1  0
 34 37  1  0
  9 10  1  0
 29 38  1  6
 32 39  1  0
 19 20  1  0
  2  3  1  0
 39 40  2  0
 40 42  1  0
 41 32  1  0
 41 42  2  0
 19 21  2  0
 10 11  1  0
 19 53  1  0
  5  6  1  0
 20 22  1  0
 10 12  2  0
 41 46  1  0
 42 43  1  0
 43 44  2  0
 44 45  1  0
 45 46  2  0
 22 23  1  0
 43 47  1  0
  1  2  1  0
  1 48  1  0
 22 24  2  0
 48 49  1  0
 11 13  1  0
 48 50  2  0
 22 25  1  0
 49 51  1  0
  5  7  2  0
 51 52  1  0
M  END

> <chembl_id>
CHEMBL1949894

> <chembl_pref_name>
None

$$$$

     RDKit          2D

 67 72  0  0  0  0  0  0  0  0999 V2000
   10.3035   -9.1433    0.0000 C   0  0  0  0  0  0  0  0  0  0  0  0
   10.5158   -9.9403    0.0000 C   0  0  0  0  0  0  0  0  0  0  0  0
   11.3106  -10.1534    0.0000 C   0  0  0  0  0  0  0  0  0  0  0  0
   11.8938   -9.5706    0.0000 C   0  0  0  0  0  0  0  0  0  0  0  0
   11.6768   -8.7716    0.0000 C   0  0  0  0  0  0  0  0  0  0  0  0
   10.8824   -8.5623    0.0000 C   0  0  0  0  0  0  0  0  0  0  0  0
   10.2842   -6.4693    0.0000 N   0  0  0  0  0  0  0  0  0  0  0  0
   11.1090   -4.4432    0.0000 C   0  0  0  0  0  0  0  0  0  0  0  0
   10.3733   -4.8191    0.0000 N   0  0  0  0  0  0  0  0  0  0  0  0
    8.2945   -3.4684    0.0000 C   0  0  0  0  0  0  0  0  0  0  0  0
    6.0863   -4.5920    0.0000 C   0  0  0  0  0  0  0  0  0  0  0  0
    8.1205   -6.7677    0.0000 C   0  0  0  0  0  0  0  0  0  0  0  0
    2.4471   -5.6431    0.0000 O   0  0  0  0  0  0  0  0  0  0  0  0
    9.0303   -3.0926    0.0000 S   0  0  0  0  0  0  0  0  0  0  0  0
    7.5143   -4.6694    0.0000 O   0  0  0  0  0  0  0  0  0  0  0  0
    8.9008   -5.5668    0.0000 N   0  0  0  0  0  0  0  0  0  0  0  0
    4.6149   -5.3436    0.0000 C   0  0  0  0  0  0  0  0  0  0  0  0
    7.4698   -5.4945    0.0000 O   0  0  0  0  0  0  0  0  0  0  0  0
    6.7340   -5.8703    0.0000 C   0  0  0  0  0  0  0  0  0  0  0  0
    3.8791   -5.7195    0.0000 C   0  0  0  0  0  0  0  0  0  0  0  0
    5.5652   -0.8445    0.0000 C   0  0  0  0  0  0  0  0  0  0  0  0
    7.6439   -2.1952    0.0000 C   0  0  0  0  0  0  0  0  0  0  0  0
    7.3847   -7.1435    0.0000 N   0  0  0  0  0  0  0  0  0  0  0  0
   10.4980   -7.2672    0.0000 C   0  0  0  0  0  0  0  0  0  0  0  0
    6.0417   -5.4171    0.0000 N   0  0  0  0  0  0  0  0  0  0  0  0
   11.1495   -3.6192    0.0000 O   0  0  0  0  0  0  0  0  0  0  0  0
    9.5930   -6.0200    0.0000 C   0  0  0  0  0  0  0  0  0  0  0  0
    6.3009   -0.4687    0.0000 C   0  0  0  0  0  0  0  0  0  0  0  0
    6.9516   -1.7420    0.0000 C   0  0  0  0  0  0  0  0  0  0  0  0
   11.8002   -4.8925    0.0000 C   0  0  0  0  0  0  0  0  0  0  0  0
    9.6375   -5.1950    0.0000 O   0  0  0  0  0  0  0  0  0  0  0  0
    6.2159   -2.1178    0.0000 C   0  0  0  0  0  0  0  0  0  0  0  0
    8.1172   -4.7892    0.0000 O   0  0  0  0  0  0  0  0  0  0  0  0
    9.6780   -4.3710    0.0000 C   0  0  0  0  0  0  0  0  0  0  0  0
    5.5206   -1.6696    0.0000 C   0  0  0  0  0  0  0  0  0  0  0  0
    6.9921   -0.9180    0.0000 C   0  0  0  0  0  0  0  0  0  0  0  0
    6.8231   -4.2202    0.0000 C   0  0  0  0  0  0  0  0  0  0  0  0
    8.8261   -7.2499    0.0000 O   0  0  0  0  0  0  0  0  0  0  0  0
    3.1839   -5.2713    0.0000 C   0  0  0  0  0  0  0  0  0  0  0  0
    9.7215   -3.5419    0.0000 C   0  0  0  0  0  0  0  0  0  0  0  0
    7.5994   -3.0203    0.0000 C   0  0  0  0  0  0  0  0  0  0  0  0
    6.8636   -3.3962    0.0000 N   0  0  0  0  0  0  0  0  0  0  0  0
    3.9642   -4.0704    0.0000 C   0  0  0  0  0  0  0  0  0  0  0  0
    8.2501   -4.2935    0.0000 O   0  0  0  0  0  0  0  0  0  0  0  0
    1.7559   -5.1939    0.0000 C   0  0  0  0  0  0  0  0  0  0  0  0
    4.6554   -4.5196    0.0000 C   0  0  0  0  0  0  0  0  0  0  0  0
    5.3910   -4.1438    0.0000 C   0  0  0  0  0  0  0  0  0  0  0  0
    6.6935   -6.6943    0.0000 C   0  0  0  0  0  0  0  0  0  0  0  0
    8.1650   -5.9426    0.0000 C   0  0  0  0  0  0  0  0  0  0  0  0
    3.2274   -4.4422    0.0000 C   0  0  0  0  0  0  0  0  0  0  0  0
    8.8562   -6.3919    0.0000 C   0  0  0  0  0  0  0  0  0  0  0  0
    8.9413   -4.7428    0.0000 C   0  0  0  0  0  0  0  0  0  0  0  0
    1.7993   -4.3727    0.0000 C   0  0  0  0  0  0  0  0  0  0  0  0
    1.0231   -5.5669    0.0000 C   0  0  0  0  0  0  0  0  0  0  0  0
    1.0360   -4.7766    0.0000 C   0  0  0  0  0  0  0  0  0  0  0  0
    9.9165   -7.8487    0.0000 C   0  0  0  0  0  0  0  0  0  0  0  0
   11.2924   -7.4800    0.0000 C   0  0  0  0  0  0  0  0  0  0  0  0
    9.1251   -7.6345    0.0000 C   0  0  0  0  0  0  0  0  0  0  0  0
    8.5439   -8.2152    0.0000 C   0  0  0  0  0  0  0  0  0  0  0  0
    8.7566   -9.0105    0.0000 C   0  0  0  0  0  0  0  0  0  0  0  0
    9.5556   -9.2219    0.0000 C   0  0  0  0  0  0  0  0  0  0  0  0
   10.1335   -8.6396    0.0000 C   0  0  0  0  0  0  0  0  0  0  0  0
   11.5028   -8.2724    0.0000 C   0  0  0  0  0  0  0  0  0  0  0  0
   12.2963   -8.4855    0.0000 C   0  0  0  0  0  0  0  0  0  0  0  0
   12.8787   -7.9036    0.0000 C   0  0  0  0  0  0  0  0  0  0  0  0
   12.6622   -7.1059    0.0000 C   0  0  0  0  0  0  0  0  0  0  0  0
   11.8691   -6.8967    0.0000 C   0  0  0  0  0  0  0  0  0  0  0  0
  1  2  2  0
  2  3  1  0
  3  4  2  0
  4  5  1  0
  5  6  2  0
  6  1  1  0
 23 12  1  0
 17 20  1  0
 41 42  1  0
 10 41  1  0
 39 13  1  0
 21 28  1  0
 25 19  1  0
 11 25  1  0
 32 35  1  0
 13 45  1  0
  8 30  1  0
 16 49  1  0
 27 31  2  0
 11 47  1  1
  7 24  1  0
 12 38  2  0
 50 43  2  0
 19 48  1  0
 19 18  2  0
 51 27  1  0
 40 34  1  0
 22 29  1  0
 48 23  1  0
 34  9  1  6
 39 50  1  0
 52 16  1  0
 14 40  1  0
 44 10  2  0
 35 21  2  0
 20 39  2  0
 47 46  1  0
 27  7  1  0
 28 36  2  0
  9  8  1  0
 52 33  2  0
 29 32  2  0
 46 43  1  0
 34 52  1  0
 41 22  1  1
 42 37  1  0
 46 17  2  0
 10 14  1  0
 37 15  2  0
 37 11  1  0
 49 12  1  0
 29 36  1  0
 49 51  1  6
  8 26  2  0
 45 53  1  0
 45 54  1  0
 45 55  1  0
 24 56  1  0
 24 57  1  0
 24  6  1  0
 56 58  2  0
 58 59  1  0
 59 60  2  0
 60 61  1  0
 61 62  2  0
 62 56  1  0
 57 63  2  0
 63 64  1  0
 64 65  2  0
 65 66  1  0
 66 67  2  0
 67 57  1  0
M  END

> <chembl_id>
CHEMBL3904629

> <chembl_pref_name>
None

$$$$

     RDKit          2D

 20 22  0  0  0  0  0  0  0  0999 V2000
   25.5831  -23.0168    0.0000 C   0  0  0  0  0  0  0  0  0  0  0  0
   24.9160  -22.5347    0.0000 N   0  0  0  0  0  0  0  0  0  0  0  0
   24.2573  -23.0168    0.0000 C   0  0  0  0  0  0  0  0  0  0  0  0
   25.3288  -23.7976    0.0000 C   0  0  0  0  0  0  0  0  0  0  0  0
   24.5075  -23.7976    0.0000 C   0  0  0  0  0  0  0  0  0  0  0  0
   24.2549  -24.5790    0.0000 C   0  0  0  0  0  0  0  0  0  0  0  0
   24.9160  -25.0635    0.0000 C   0  0  0  0  0  0  0  0  0  0  0  0
   25.5812  -24.5790    0.0000 C   0  0  0  0  0  0  0  0  0  0  0  0
   26.1460  -23.7976    0.0000 S   0  0  0  0  0  0  0  0  0  0  0  0
   26.5546  -24.5094    0.0000 C   0  0  0  0  0  0  0  0  0  0  0  0
   27.3759  -24.5094    0.0000 C   0  0  0  0  0  0  0  0  0  0  0  0
   26.1460  -25.2213    0.0000 O   0  0  0  0  0  0  0  0  0  0  0  0
   26.3648  -22.7653    0.0000 O   0  0  0  0  0  0  0  0  0  0  0  0
   23.4759  -22.7646    0.0000 O   0  0  0  0  0  0  0  0  0  0  0  0
   27.7886  -23.7975    0.0000 C   0  0  0  0  0  0  0  0  0  0  0  0
   28.6070  -23.8003    0.0000 C   0  0  0  0  0  0  0  0  0  0  0  0
   29.0154  -23.0892    0.0000 C   0  0  0  0  0  0  0  0  0  0  0  0
   28.6068  -22.3764    0.0000 C   0  0  0  0  0  0  0  0  0  0  0  0
   27.7812  -22.3791    0.0000 C   0  0  0  0  0  0  0  0  0  0  0  0
   27.3723  -23.0907    0.0000 C   0  0  0  0  0  0  0  0  0  0  0  0
  4  1  1  0
  1  2  1  0
  2  3  1  0
  3  5  1  0
  4  5  1  0
  5  6  2  0
  6  7  1  0
  7  8  1  0
  8  4  1  0
  4  9  1  0
  9 10  1  0
 10 11  1  0
 10 12  2  0
  1 13  2  0
  3 14  2  0
 11 15  1  0
 15 16  2  0
 16 17  1  0
 17 18  2  0
 18 19  1  0
 19 20  2  0
 20 15  1  0
M  END

> <chembl_id>
CHEMBL4064901

> <chembl_pref_name>
None

$$$$

     RDKit          2D

 22 21  0  0  1  0  0  0  0  0999 V2000
    1.5750   -0.9625    0.0000 C   0  0  0  0  0  0  0  0  0  0  0  0
    2.2917   -0.5500    0.0000 C   0  0  0  0  0  0  0  0  0  0  0  0
    0.8625   -0.5500    0.0000 N   0  0  0  0  0  0  0  0  0  0  0  0
    5.8625   -0.9625    0.0000 C   0  0  0  0  0  0  0  0  0  0  0  0
    0.1500   -0.9625    0.0000 C   0  0  0  0  0  0  0  0  0  0  0  0
    0.8625   -3.0250    0.0000 C   0  0  0  0  0  0  0  0  0  0  0  0
    0.8625   -2.2000    0.0000 S   0  0  0  0  0  0  0  0  0  0  0  0
    1.5750   -1.7875    0.0000 C   0  0  0  0  0  0  0  0  0  0  0  0
    2.2917    0.2750    0.0000 O   0  0  0  0  0  0  0  0  0  0  0  0
    5.8625   -1.7875    0.0000 O   0  0  0  0  0  0  0  0  0  0  0  0
    0.1500   -1.7875    0.0000 O   0  0  0  0  0  0  0  0  0  0  0  0
    0.1500   -3.4375    0.0000 O   0  0  0  0  0  0  0  0  0  0  0  0
    3.0042   -0.9625    0.0000 N   0  0  0  0  0  0  0  0  0  0  0  0
    5.1500   -0.5500    0.0000 S   0  0  0  0  0  0  0  0  0  0  0  0
    6.5792   -0.5500    0.0000 C   0  0  0  0  0  0  0  0  0  0  0  0
   -0.5708   -0.5500    0.0000 C   0  0  0  0  0  0  0  0  0  0  0  0
    1.5750   -3.4375    0.0000 C   0  0  0  0  0  0  0  0  0  0  0  0
    3.7167   -0.5500    0.0000 C   0  0  0  0  0  0  0  0  0  0  0  0
    4.4292   -0.9625    0.0000 C   0  0  0  0  0  0  0  0  0  0  0  0
    6.5792    0.2750    0.0000 C   0  0  0  0  0  0  0  0  0  0  0  0
    7.2917   -0.9625    0.0000 C   0  0  0  0  0  0  0  0  0  0  0  0
    0.8542   -1.3667    0.0000 H   0  0  0  0  0  0  0  0  0  0  0  0
  2  1  1  0
  1  3  1  6
  4 14  1  0
  5  3  1  0
  6  7  1  0
  7  8  1  0
  8  1  1  0
  9  2  2  0
 10  4  2  0
 11  5  2  0
 12  6  2  0
 13  2  1  0
 14 19  1  0
 15  4  1  0
 16  5  1  0
 17  6  1  0
 18 13  1  0
 19 18  1  0
 20 15  1  0
 21 15  1  0
  1 22  1  1
M  END

> <chembl_id>
CHEMBL52954

> <chembl_pref_name>
None

$$$$

     RDKit          2D

 71 73  0  0  0  0  0  0  0  0999 V2000
   23.7842  -10.5161    0.0000 O   0  0  0  0  0  0  0  0  0  0  0  0
   23.3755   -9.8031    0.0000 P   0  0  0  0  0  0  0  0  0  0  0  0
   22.9624  -10.5135    0.0000 O   0  0  0  0  0  0  0  0  0  0  0  0
   24.4138   -8.9066    0.0000 O   0  0  0  0  0  0  0  0  0  0  0  0
   24.0053   -8.1935    0.0000 P   0  0  0  0  0  0  0  0  0  0  0  0
   23.5920   -8.9040    0.0000 O   0  0  0  0  0  0  0  0  0  0  0  0
   22.9836   -8.9108    0.0000 O   0  0  0  0  0  0  0  0  0  0  0  0
   22.5750   -8.1977    0.0000 P   0  0  0  0  0  0  0  0  0  0  0  0
   22.1618   -8.9081    0.0000 O   0  0  0  0  0  0  0  0  0  0  0  0
   20.0106   -7.0719    0.0000 C   0  0  0  0  0  0  0  0  0  0  0  0
   20.4276   -7.7891    0.0000 C   0  0  0  0  0  0  0  0  0  0  0  0
   20.8402   -7.0694    0.0000 C   0  0  0  0  0  0  0  0  0  0  0  0
   11.4376   -7.1052    0.0000 C   0  0  0  0  0  0  0  0  0  0  0  0
   11.8546   -7.8225    0.0000 C   0  0  0  0  0  0  0  0  0  0  0  0
   12.2672   -7.1027    0.0000 C   0  0  0  0  0  0  0  0  0  0  0  0
    2.8813   -7.1303    0.0000 C   0  0  0  0  0  0  0  0  0  0  0  0
    3.2982   -7.8474    0.0000 C   0  0  0  0  0  0  0  0  0  0  0  0
    3.7109   -7.1278    0.0000 C   0  0  0  0  0  0  0  0  0  0  0  0
    2.5853   -8.2602    0.0000 C   0  0  0  0  0  0  0  0  0  0  0  0
    4.0113   -8.2561    0.0000 C   0  0  0  0  0  0  0  0  0  0  0  0
    4.7244   -7.8433    0.0000 C   0  0  0  0  0  0  0  0  0  0  0  0
    5.4373   -8.2519    0.0000 C   0  0  0  0  0  0  0  0  0  0  0  0
    6.1504   -7.8391    0.0000 C   0  0  0  0  0  0  0  0  0  0  0  0
    6.8634   -8.2478    0.0000 C   0  0  0  0  0  0  0  0  0  0  0  0
    7.5765   -7.8350    0.0000 C   0  0  0  0  0  0  0  0  0  0  0  0
    8.2894   -8.2436    0.0000 C   0  0  0  0  0  0  0  0  0  0  0  0
    9.0025   -7.8307    0.0000 C   0  0  0  0  0  0  0  0  0  0  0  0
    9.7155   -8.2394    0.0000 C   0  0  0  0  0  0  0  0  0  0  0  0
   10.4285   -7.8266    0.0000 C   0  0  0  0  0  0  0  0  0  0  0  0
   11.1416   -8.2353    0.0000 C   0  0  0  0  0  0  0  0  0  0  0  0
   12.5676   -8.2310    0.0000 C   0  0  0  0  0  0  0  0  0  0  0  0
    1.8713   -7.8518    0.0000 O   0  0  0  0  0  0  0  0  0  0  0  0
    2.5863   -9.0867    0.0000 O   0  0  0  0  0  0  0  0  0  0  0  0
    7.5746   -7.0094    0.0000 O   0  0  0  0  0  0  0  0  0  0  0  0
   12.5703   -9.0566    0.0000 O   0  0  0  0  0  0  0  0  0  0  0  0
   13.2813   -7.8160    0.0000 S   0  0  0  0  0  0  0  0  0  0  0  0
   13.9976   -8.2265    0.0000 C   0  0  0  0  0  0  0  0  0  0  0  0
   14.7113   -7.8114    0.0000 C   0  0  0  0  0  0  0  0  0  0  0  0
   15.4276   -8.2219    0.0000 N   0  0  0  0  0  0  0  0  0  0  0  0
   16.1413   -7.8069    0.0000 C   0  0  0  0  0  0  0  0  0  0  0  0
   16.8576   -8.2174    0.0000 C   0  0  0  0  0  0  0  0  0  0  0  0
   17.5713   -7.8023    0.0000 C   0  0  0  0  0  0  0  0  0  0  0  0
   16.1387   -6.9813    0.0000 O   0  0  0  0  0  0  0  0  0  0  0  0
   18.2876   -8.2128    0.0000 N   0  0  0  0  0  0  0  0  0  0  0  0
   19.0012   -7.7977    0.0000 C   0  0  0  0  0  0  0  0  0  0  0  0
   19.7175   -8.2082    0.0000 C   0  0  0  0  0  0  0  0  0  0  0  0
   18.9986   -6.9721    0.0000 O   0  0  0  0  0  0  0  0  0  0  0  0
   21.1475   -8.2036    0.0000 C   0  0  0  0  0  0  0  0  0  0  0  0
   21.8612   -7.7886    0.0000 O   0  0  0  0  0  0  0  0  0  0  0  0
   19.7202   -9.0338    0.0000 O   0  0  0  0  0  0  0  0  0  0  0  0
   23.2912   -7.7840    0.0000 O   0  0  0  0  0  0  0  0  0  0  0  0
   24.7212   -7.7794    0.0000 O   0  0  0  0  0  0  0  0  0  0  0  0
   25.4376   -8.1900    0.0000 C   0  0  0  0  0  0  0  0  0  0  0  0
   25.4402   -9.0155    0.0000 C   0  0  0  0  0  0  0  0  0  0  0  0
   24.7747   -9.5031    0.0000 C   0  0  0  0  0  0  0  0  0  0  0  0
   25.0323  -10.2875    0.0000 C   0  0  0  0  0  0  0  0  0  0  0  0
   25.8580  -10.2849    0.0000 C   0  0  0  0  0  0  0  0  0  0  0  0
   26.1104   -9.4989    0.0000 O   0  0  0  0  0  0  0  0  0  0  0  0
   26.3454  -10.9512    0.0000 N   0  0  0  0  0  0  0  0  0  0  0  0
   24.5492  -10.9570    0.0000 O   0  0  0  0  0  0  0  0  0  0  0  0
   23.9886   -9.2508    0.0000 O   0  0  0  0  0  0  0  0  0  0  0  0
   22.5909   -9.5531    0.0000 O   0  0  0  0  0  0  0  0  0  0  0  0
   27.4307  -11.7322    0.0000 N   0  0  0  0  0  0  0  0  0  0  0  0
   27.1729  -10.9479    0.0000 C   0  0  0  0  0  0  0  0  0  0  0  0
   26.7643  -12.2197    0.0000 C   0  0  0  0  0  0  0  0  0  0  0  0
   26.0971  -11.7344    0.0000 C   0  0  0  0  0  0  0  0  0  0  0  0
   25.3454  -12.0699    0.0000 N   0  0  0  0  0  0  0  0  0  0  0  0
   25.2597  -12.8901    0.0000 C   0  0  0  0  0  0  0  0  0  0  0  0
   25.9318  -13.3740    0.0000 N   0  0  0  0  0  0  0  0  0  0  0  0
   26.6808  -13.0359    0.0000 C   0  0  0  0  0  0  0  0  0  0  0  0
   27.3507  -13.5186    0.0000 N   0  0  0  0  0  0  0  0  0  0  0  0
  2  1  1  0
  3  2  1  0
  5  4  1  0
  6  5  2  0
  8  7  2  0
  9  8  1  0
 11 10  1  0
 12 11  1  0
 14 13  1  0
 15 14  1  0
 17 16  1  0
 18 17  1  0
 19 17  1  0
 17 20  1  0
 20 21  1  0
 21 22  1  0
 22 23  1  0
 23 24  1  0
 24 25  1  0
 25 26  1  0
 26 27  1  0
 27 28  1  0
 28 29  1  0
 29 30  1  0
 30 14  1  0
 14 31  1  0
 19 32  1  0
 19 33  2  0
 25 34  1  0
 31 35  2  0
 31 36  1  0
 36 37  1  0
 37 38  1  0
 38 39  1  0
 39 40  1  0
 40 41  1  0
 41 42  1  0
 40 43  2  0
 42 44  1  0
 44 45  1  0
 45 46  1  0
 45 47  2  0
 46 11  1  0
 11 48  1  0
 48 49  1  0
 46 50  1  1
 49  8  1  0
  8 51  1  0
 51  5  1  0
  5 52  1  0
 52 53  1  0
 54 53  1  1
 54 55  1  0
 55 56  1  0
 56 57  1  0
 57 58  1  0
 58 54  1  0
 57 59  1  1
 56 60  1  6
 55 61  1  6
 61  2  1  0
  2 62  2  0
 59 66  1  0
 65 63  1  0
 63 64  2  0
 64 59  1  0
 65 66  2  0
 66 67  1  0
 67 68  2  0
 68 69  1  0
 69 70  2  0
 70 65  1  0
 70 71  1  0
M  END

> <chembl_id>
CHEMBL2165412

> <chembl_pref_name>
None

$$$$

     RDKit          2D

 57 59  0  0  0  0  0  0  0  0999 V2000
    0.8083   -8.4708    0.0000 S   0  0  0  0  0  0  0  0  0  0  0  0
    1.5228   -8.0583    0.0000 C   0  0  0  0  0  0  0  0  0  0  0  0
    2.2373   -8.4708    0.0000 C   0  0  0  0  0  0  0  0  0  0  0  0
    2.9517   -8.0583    0.0000 N   0  0  0  0  0  0  0  0  0  0  0  0
    3.6662   -8.4708    0.0000 C   0  0  0  0  0  0  0  0  0  0  0  0
    4.3807   -8.0583    0.0000 C   0  0  0  0  0  0  0  0  0  0  0  0
    3.6662   -9.2958    0.0000 O   0  0  0  0  0  0  0  0  0  0  0  0
    5.0952   -8.4708    0.0000 C   0  0  0  0  0  0  0  0  0  0  0  0
    5.8096   -8.0583    0.0000 N   0  0  0  0  0  0  0  0  0  0  0  0
    6.5241   -8.4708    0.0000 C   0  0  0  0  0  0  0  0  0  0  0  0
    7.2386   -8.0583    0.0000 C   0  0  0  0  0  0  0  0  0  0  0  0
    6.5241   -9.2958    0.0000 O   0  0  0  0  0  0  0  0  0  0  0  0
    7.9530   -8.4708    0.0000 C   0  0  0  0  0  0  0  0  0  0  0  0
    7.2386   -7.2333    0.0000 O   0  0  0  0  0  0  0  0  0  0  0  0
    8.6675   -8.0583    0.0000 C   0  0  0  0  0  0  0  0  0  0  0  0
    7.5333   -9.1792    0.0000 C   0  0  0  0  0  0  0  0  0  0  0  0
    8.3583   -9.1792    0.0000 C   0  0  0  0  0  0  0  0  0  0  0  0
    9.3820   -8.4708    0.0000 O   0  0  0  0  0  0  0  0  0  0  0  0
   10.0965   -8.0583    0.0000 P   0  0  0  0  0  0  0  0  0  0  0  0
   10.8109   -8.4708    0.0000 O   0  0  0  0  0  0  0  0  0  0  0  0
   10.0917   -7.2292    0.0000 O   0  0  0  0  0  0  0  0  0  0  0  0
   10.0917   -8.8792    0.0000 O   0  0  0  0  0  0  0  0  0  0  0  0
   11.5254   -8.0583    0.0000 P   0  0  0  0  0  0  0  0  0  0  0  0
   12.2399   -8.4708    0.0000 O   0  0  0  0  0  0  0  0  0  0  0  0
   11.5254   -7.2333    0.0000 O   0  0  0  0  0  0  0  0  0  0  0  0
   11.5208   -8.8792    0.0000 O   0  0  0  0  0  0  0  0  0  0  0  0
   12.9543   -8.0583    0.0000 C   0  0  0  0  0  0  0  0  0  0  0  0
   13.6697   -8.4703    0.0000 C   0  0  0  0  0  0  0  0  0  0  0  0
   13.9291   -9.2509    0.0000 C   0  0  0  0  0  0  0  0  0  0  0  0
   14.7540   -9.2454    0.0000 C   0  0  0  0  0  0  0  0  0  0  0  0
   15.0038   -8.4590    0.0000 C   0  0  0  0  0  0  0  0  0  0  0  0
   14.3330   -7.9787    0.0000 O   0  0  0  0  0  0  0  0  0  0  0  0
   15.7125   -8.0417    0.0000 N   0  0  0  0  0  0  0  0  0  0  0  0
   13.5275   -9.9711    0.0000 O   0  0  0  0  0  0  0  0  0  0  0  0
   12.7026   -9.9836    0.0000 P   0  0  0  0  0  0  0  0  0  0  0  0
   12.3010  -10.7042    0.0000 O   0  0  0  0  0  0  0  0  0  0  0  0
   12.2793   -9.2755    0.0000 O   0  0  0  0  0  0  0  0  0  0  0  0
   13.1859  -10.6424    0.0000 O   0  0  0  0  0  0  0  0  0  0  0  0
   15.2434   -9.9096    0.0000 O   0  0  0  0  0  0  0  0  0  0  0  0
   16.3780   -8.5250    0.0000 C   0  0  0  0  0  0  0  0  0  0  0  0
   17.0433   -8.0414    0.0000 N   0  0  0  0  0  0  0  0  0  0  0  0
   15.9665   -7.2594    0.0000 C   0  0  0  0  0  0  0  0  0  0  0  0
   16.7899   -7.2621    0.0000 C   0  0  0  0  0  0  0  0  0  0  0  0
   17.2016   -6.5543    0.0000 C   0  0  0  0  0  0  0  0  0  0  0  0
   16.7945   -5.8393    0.0000 N   0  0  0  0  0  0  0  0  0  0  0  0
   15.9712   -5.8366    0.0000 C   0  0  0  0  0  0  0  0  0  0  0  0
   15.5548   -6.5489    0.0000 N   0  0  0  0  0  0  0  0  0  0  0  0
   18.0266   -6.5582    0.0000 N   0  0  0  0  0  0  0  0  0  0  0  0
    0.0939   -8.0583    0.0000 C   0  0  0  0  0  0  0  0  0  0  0  0
   -0.6206   -8.4708    0.0000 C   0  0  0  0  0  0  0  0  0  0  0  0
    0.0939   -7.2333    0.0000 O   0  0  0  0  0  0  0  0  0  0  0  0
   -1.3351   -8.0583    0.0000 C   0  0  0  0  0  0  0  0  0  0  0  0
   -2.0496   -8.4708    0.0000 C   0  0  0  0  0  0  0  0  0  0  0  0
   -2.7640   -8.0583    0.0000 C   0  0  0  0  0  0  0  0  0  0  0  0
   -3.4785   -8.4708    0.0000 C   0  0  0  0  0  0  0  0  0  0  0  0
   -4.1930   -8.0583    0.0000 C   0  0  0  0  0  0  0  0  0  0  0  0
   -4.9074   -8.4708    0.0000 C   0  0  0  0  0  0  0  0  0  0  0  0
  3  4  1  0
 13 15  1  0
  6  8  1  0
 13 16  1  0
 29 30  1  0
 30 31  1  0
 31 32  1  0
 32 28  1  0
 31 33  1  1
 13 17  1  0
 29 34  1  6
  8  9  1  0
 34 35  1  0
 15 18  1  0
 35 36  1  0
  4  5  1  0
 35 37  2  0
 18 19  1  0
 35 38  1  0
  9 10  1  0
 30 39  1  6
 33 40  1  0
 19 20  1  0
  2  3  1  0
 40 41  2  0
 41 43  1  0
 42 33  1  0
 42 43  2  0
 19 21  2  0
 10 11  1  0
 19 22  1  0
  5  6  1  0
 20 23  1  0
 10 12  2  0
 42 47  1  0
 43 44  1  0
 44 45  2  0
 45 46  1  0
 46 47  2  0
 23 24  1  0
 44 48  1  0
  1  2  1  0
  1 49  1  0
 23 25  2  0
 49 50  1  0
 11 13  1  0
 49 51  2  0
 23 26  1  0
 50 52  1  0
  5  7  2  0
 52 53  1  0
 24 27  1  0
 53 54  1  0
 11 14  1  0
 54 55  1  0
 28 27  1  1
 55 56  1  0
 28 29  1  0
 56 57  1  0
M  END

> <chembl_id>
CHEMBL1949896

> <chembl_pref_name>
Octanoyl-CoA

$$$$

     RDKit          2D

 23 23  0  0  0  0  0  0  0  0999 V2000
   -3.4528   -0.1008    0.0000 C   0  0  0  0  0  0  0  0  0  0  0  0
   -3.4541   -0.9284    0.0000 C   0  0  0  0  0  0  0  0  0  0  0  0
   -2.7411   -1.3413    0.0000 C   0  0  0  0  0  0  0  0  0  0  0  0
   -2.0218   -0.9278    0.0000 C   0  0  0  0  0  0  0  0  0  0  0  0
   -2.0250   -0.0968    0.0000 C   0  0  0  0  0  0  0  0  0  0  0  0
   -2.7431    0.3120    0.0000 C   0  0  0  0  0  0  0  0  0  0  0  0
   -4.1677    0.3111    0.0000 O   0  0  0  0  0  0  0  0  0  0  0  0
   -1.3069   -1.3397    0.0000 C   0  0  0  0  0  0  0  0  0  0  0  0
   -0.5929   -0.9265    0.0000 C   0  0  0  0  0  0  0  0  0  0  0  0
    0.1220   -1.3384    0.0000 C   0  0  0  0  0  0  0  0  0  0  0  0
    0.8361   -0.9252    0.0000 S   0  0  0  0  0  0  0  0  0  0  0  0
    0.1228   -2.1634    0.0000 O   0  0  0  0  0  0  0  0  0  0  0  0
    1.5509   -1.3372    0.0000 C   0  0  0  0  0  0  0  0  0  0  0  0
    2.2650   -0.9240    0.0000 C   0  0  0  0  0  0  0  0  0  0  0  0
    2.9799   -1.3358    0.0000 N   0  0  0  0  0  0  0  0  0  0  0  0
    3.6940   -0.9227    0.0000 C   0  0  0  0  0  0  0  0  0  0  0  0
    4.4088   -1.3345    0.0000 C   0  0  0  0  0  0  0  0  0  0  0  0
    3.6932   -0.0977    0.0000 O   0  0  0  0  0  0  0  0  0  0  0  0
   -4.1683    1.1361    0.0000 C   0  0  0  0  0  0  0  0  0  0  0  0
   -4.8831    1.5480    0.0000 C   0  0  0  0  0  0  0  0  0  0  0  0
   -4.8839    2.3730    0.0000 C   0  0  0  0  0  0  0  0  0  0  0  0
   -5.5987    2.7849    0.0000 C   0  0  0  0  0  0  0  0  0  0  0  0
   -4.1698    2.7861    0.0000 C   0  0  0  0  0  0  0  0  0  0  0  0
  5  6  2  0
 10 12  2  0
  6  1  1  0
 11 13  1  0
  1  2  2  0
 13 14  1  0
  1  7  1  0
 14 15  1  0
  3  4  2  0
 15 16  1  0
  4  8  1  0
 16 17  1  0
 16 18  2  0
  8  9  2  0
  7 19  1  0
  4  5  1  0
 19 20  1  0
  9 10  1  0
 20 21  2  0
  2  3  1  0
 21 22  1  0
 10 11  1  0
 21 23  1  0
M  END

> <chembl_id>
CHEMBL508464

> <chembl_pref_name>
None

$$$$

     RDKit          2D

 23 22  0  0  0  0  0  0  0  0999 V2000
    3.9564   -3.3318    0.0000 N   0  0  0  0  0  0  0  0  0  0  0  0
    4.6709   -3.7443    0.0000 C   0  0  0  0  0  0  0  0  0  0  0  0
    5.3853   -3.3318    0.0000 C   0  0  0  0  0  0  0  0  0  0  0  0
    6.0998   -3.7443    0.0000 S   0  0  0  0  0  0  0  0  0  0  0  0
    3.2419   -3.7443    0.0000 C   0  0  0  0  0  0  0  0  0  0  0  0
    2.5274   -3.3318    0.0000 O   0  0  0  0  0  0  0  0  0  0  0  0
    3.2419   -4.5693    0.0000 C   0  0  0  0  0  0  0  0  0  0  0  0
    7.5287   -3.7443    0.0000 C   0  0  0  0  0  0  0  0  0  0  0  0
    6.8143   -3.3318    0.0000 C   0  0  0  0  0  0  0  0  0  0  0  0
    6.8143   -2.5068    0.0000 O   0  0  0  0  0  0  0  0  0  0  0  0
    8.2432   -3.3318    0.0000 C   0  0  0  0  0  0  0  0  0  0  0  0
    8.9577   -3.7443    0.0000 C   0  0  0  0  0  0  0  0  0  0  0  0
    9.6722   -3.3318    0.0000 C   0  0  0  0  0  0  0  0  0  0  0  0
   10.3866   -3.7443    0.0000 C   0  0  0  0  0  0  0  0  0  0  0  0
   11.1011   -3.3318    0.0000 C   0  0  0  0  0  0  0  0  0  0  0  0
   11.8156   -3.7443    0.0000 N   0  0  0  0  0  0  0  0  0  0  0  0
   12.5300   -3.3318    0.0000 C   0  0  0  0  0  0  0  0  0  0  0  0
   13.2445   -3.7443    0.0000 O   0  0  0  0  0  0  0  0  0  0  0  0
   12.5300   -2.5068    0.0000 O   0  0  0  0  0  0  0  0  0  0  0  0
   13.9590   -3.3318    0.0000 C   0  0  0  0  0  0  0  0  0  0  0  0
   14.6735   -2.9193    0.0000 C   0  0  0  0  0  0  0  0  0  0  0  0
   14.3715   -4.0463    0.0000 C   0  0  0  0  0  0  0  0  0  0  0  0
   13.5465   -2.6173    0.0000 C   0  0  0  0  0  0  0  0  0  0  0  0
 11 12  1  0
  5  7  1  0
 12 13  1  0
  1  5  1  0
 13 14  1  0
 14 15  1  0
  1  2  1  0
 15 16  1  0
  8  9  1  0
 16 17  1  0
  9  4  1  0
 17 18  1  0
  2  3  1  0
 17 19  2  0
  9 10  2  0
 18 20  1  0
  3  4  1  0
 20 21  1  0
  8 11  1  0
 20 22  1  0
  5  6  2  0
 20 23  1  0
M  END

> <chembl_id>
CHEMBL501082

> <chembl_pref_name>
None

$$$$

     RDKit          2D

 33 34  0  0  1  0  0  0  0  0999 V2000
   -1.4917  -10.5167    0.0000 N   0  0  0  0  0  0  0  0  0  0  0  0
   -0.8796  -10.1625    0.0000 C   0  0  0  0  0  0  0  0  0  0  0  0
   -0.2635  -10.5167    0.0000 C   0  0  0  0  0  0  0  0  0  0  0  0
   -0.2635  -11.2250    0.0000 O   0  0  0  0  0  0  0  0  0  0  0  0
   -0.8796   -9.4542    0.0000 C   0  0  0  0  0  0  0  0  0  0  0  0
   -0.2635   -9.1000    0.0000 S   0  0  0  0  0  0  0  0  0  0  0  0
    2.0500  -10.8708    0.0000 N   0  0  0  0  0  0  0  0  0  0  0  0
    1.6417  -10.3000    0.0000 C   0  0  0  0  0  0  0  0  0  0  0  0
    1.6250  -11.4375    0.0000 C   0  0  0  0  0  0  0  0  0  0  0  0
    0.9667  -10.5125    0.0000 C   0  0  0  0  0  0  0  0  0  0  0  0
    0.9583  -11.2167    0.0000 C   0  0  0  0  0  0  0  0  0  0  0  0
    8.1500  -10.8292    0.0000 C   0  0  0  0  0  0  0  0  0  0  0  0
    5.7125  -10.8292    0.0000 N   0  0  0  0  0  0  0  0  0  0  0  0
    6.3208  -10.4792    0.0000 C   0  0  0  0  0  0  0  0  0  0  0  0
    7.5333  -10.4792    0.0000 N   0  0  0  0  0  0  0  0  0  0  0  0
    8.7625  -10.4792    0.0000 C   0  0  0  0  0  0  0  0  0  0  0  0
    5.0917  -10.4833    0.0000 C   0  0  0  0  0  0  0  0  0  0  0  0
    1.6375   -9.6000    0.0000 O   0  0  0  0  0  0  0  0  0  0  0  0
    1.6250  -12.1375    0.0000 O   0  0  0  0  0  0  0  0  0  0  0  0
    8.1500  -11.5375    0.0000 O   0  0  0  0  0  0  0  0  0  0  0  0
    9.3667  -10.8292    0.0000 C   0  0  0  0  0  0  0  0  0  0  0  0
    6.3167   -9.7708    0.0000 O   0  0  0  0  0  0  0  0  0  0  0  0
    6.9333  -10.8292    0.0000 C   0  0  0  0  0  0  0  0  0  0  0  0
    2.6500  -10.5125    0.0000 C   0  0  0  0  0  0  0  0  0  0  0  0
    9.9708  -10.4833    0.0000 C   0  0  0  0  0  0  0  0  0  0  0  0
    8.7542   -9.7750    0.0000 C   0  0  0  0  0  0  0  0  0  0  0  0
    9.3583   -9.4250    0.0000 C   0  0  0  0  0  0  0  0  0  0  0  0
    4.4875  -10.8458    0.0000 C   0  0  0  0  0  0  0  0  0  0  0  0
    9.9792   -9.7750    0.0000 C   0  0  0  0  0  0  0  0  0  0  0  0
   10.5750  -10.8292    0.0000 I   0  0  0  0  0  0  0  0  0  0  0  0
    3.2667  -10.8625    0.0000 C   0  0  0  0  0  0  0  0  0  0  0  0
    3.8708  -10.4917    0.0000 C   0  0  0  0  0  0  0  0  0  0  0  0
    0.3500  -10.1583    0.0000 S   0  0  0  0  0  0  0  0  0  0  0  0
  5  6  1  0
  1  2  1  0
  2  3  1  0
  3  4  2  0
  8  7  1  0
  9  7  1  0
 10  8  1  0
 11  9  1  0
 12 15  1  0
 13 17  1  0
 14 13  1  0
 15 23  1  0
 16 12  1  0
 17 28  1  0
 18  8  2  0
 19  9  2  0
 20 12  2  0
 21 16  2  0
 22 14  2  0
 23 14  1  0
 24  7  1  0
 25 21  1  0
 26 16  1  0
 27 26  2  0
 28 32  1  0
 29 27  1  0
 30 25  1  0
 31 24  1  0
 32 31  1  0
 10 11  1  0
 25 29  2  0
  2  5  1  1
 10 33  1  0
 33  3  1  0
M  ISO  1  30 125
M  END

> <chembl_id>
CHEMBL173732

> <chembl_pref_name>
None

$$$$

     RDKit          2D

 67 70  0  0  0  0  0  0  0  0999 V2000
   19.1782   -9.8899    0.0000 C   0  0  0  0  0  0  0  0  0  0  0  0
   19.8854  -10.2994    0.0000 C   0  0  0  0  0  0  0  0  0  0  0  0
   19.1792   -9.0727    0.0000 O   0  0  0  0  0  0  0  0  0  0  0  0
   19.8843  -11.1166    0.0000 O   0  0  0  0  0  0  0  0  0  0  0  0
   20.5936   -9.8917    0.0000 C   0  0  0  0  0  0  0  0  0  0  0  0
   21.3008  -10.3012    0.0000 C   0  0  0  0  0  0  0  0  0  0  0  0
   21.1686   -9.3069    0.0000 C   0  0  0  0  0  0  0  0  0  0  0  0
   20.0088   -9.3069    0.0000 C   0  0  0  0  0  0  0  0  0  0  0  0
   22.0090   -9.8936    0.0000 O   0  0  0  0  0  0  0  0  0  0  0  0
   22.7162  -10.3031    0.0000 P   0  0  0  0  0  0  0  0  0  0  0  0
   23.4244   -9.8954    0.0000 O   0  0  0  0  0  0  0  0  0  0  0  0
   22.2994  -11.0073    0.0000 O   0  0  0  0  0  0  0  0  0  0  0  0
   23.2900  -10.8794    0.0000 O   0  0  0  0  0  0  0  0  0  0  0  0
   24.1316  -10.3049    0.0000 P   0  0  0  0  0  0  0  0  0  0  0  0
   23.9132  -11.0899    0.0000 O   0  0  0  0  0  0  0  0  0  0  0  0
   24.5322  -11.0073    0.0000 O   0  0  0  0  0  0  0  0  0  0  0  0
   24.8335   -9.8888    0.0000 O   0  0  0  0  0  0  0  0  0  0  0  0
   25.5459  -10.2893    0.0000 C   0  0  0  0  0  0  0  0  0  0  0  0
   26.1891   -9.7850    0.0000 C   0  0  0  0  0  0  0  0  0  0  0  0
   26.9710  -10.0076    0.0000 C   0  0  0  0  0  0  0  0  0  0  0  0
   27.4270   -9.3295    0.0000 C   0  0  0  0  0  0  0  0  0  0  0  0
   26.9229   -8.6862    0.0000 C   0  0  0  0  0  0  0  0  0  0  0  0
   26.1555   -8.9669    0.0000 O   0  0  0  0  0  0  0  0  0  0  0  0
   27.2517  -10.7751    0.0000 O   0  0  0  0  0  0  0  0  0  0  0  0
   28.2437   -9.2998    0.0000 O   0  0  0  0  0  0  0  0  0  0  0  0
   27.1611   -7.9055    0.0000 N   0  0  0  0  0  0  0  0  0  0  0  0
   27.1326   -6.5846    0.0000 N   0  0  0  0  0  0  0  0  0  0  0  0
   26.6680   -7.2580    0.0000 C   0  0  0  0  0  0  0  0  0  0  0  0
   27.9164   -6.8198    0.0000 C   0  0  0  0  0  0  0  0  0  0  0  0
   27.9305   -7.6377    0.0000 C   0  0  0  0  0  0  0  0  0  0  0  0
   28.6448   -8.0327    0.0000 N   0  0  0  0  0  0  0  0  0  0  0  0
   29.3455   -7.6109    0.0000 N   0  0  0  0  0  0  0  0  0  0  0  0
   29.3273   -6.7899    0.0000 C   0  0  0  0  0  0  0  0  0  0  0  0
   28.6126   -6.3986    0.0000 C   0  0  0  0  0  0  0  0  0  0  0  0
   28.5949   -5.5816    0.0000 N   0  0  0  0  0  0  0  0  0  0  0  0
   26.7275  -11.4019    0.0000 P   0  0  0  0  0  0  0  0  0  0  0  0
   27.1283  -12.1052    0.0000 O   0  0  0  0  0  0  0  0  0  0  0  0
   26.1419  -10.8175    0.0000 O   0  0  0  0  0  0  0  0  0  0  0  0
   26.1419  -11.9772    0.0000 O   0  0  0  0  0  0  0  0  0  0  0  0
   13.5992  -11.3169    0.0000 C   0  0  0  0  0  0  0  0  0  0  0  0
   12.8109  -11.1064    0.0000 C   0  0  0  0  0  0  0  0  0  0  0  0
   13.0228  -11.8943    0.0000 O   0  0  0  0  0  0  0  0  0  0  0  0
    5.0311   -9.0882    0.0000 C   0  0  0  0  0  0  0  0  0  0  0  0
    5.7368   -8.6796    0.0000 C   0  0  0  0  0  0  0  0  0  0  0  0
    6.4426   -9.0840    0.0000 C   0  0  0  0  0  0  0  0  0  0  0  0
    7.1484   -8.6754    0.0000 C   0  0  0  0  0  0  0  0  0  0  0  0
    7.8541   -9.0799    0.0000 C   0  0  0  0  0  0  0  0  0  0  0  0
    4.3229   -8.6804    0.0000 C   0  0  0  0  0  0  0  0  0  0  0  0
    7.8567   -9.8971    0.0000 C   0  0  0  0  0  0  0  0  0  0  0  0
    8.5657  -10.3034    0.0000 C   0  0  0  0  0  0  0  0  0  0  0  0
    8.5683  -11.1206    0.0000 C   0  0  0  0  0  0  0  0  0  0  0  0
    9.2774  -11.5269    0.0000 C   0  0  0  0  0  0  0  0  0  0  0  0
    9.9838  -11.1161    0.0000 C   0  0  0  0  0  0  0  0  0  0  0  0
   10.6928  -11.5224    0.0000 C   0  0  0  0  0  0  0  0  0  0  0  0
   11.3992  -11.1116    0.0000 C   0  0  0  0  0  0  0  0  0  0  0  0
   12.1082  -11.5179    0.0000 C   0  0  0  0  0  0  0  0  0  0  0  0
   12.8120  -10.2899    0.0000 C   0  0  0  0  0  0  0  0  0  0  0  0
   13.5202   -9.8822    0.0000 S   0  0  0  0  0  0  0  0  0  0  0  0
   12.1048   -9.8804    0.0000 O   0  0  0  0  0  0  0  0  0  0  0  0
   14.2274  -10.2917    0.0000 C   0  0  0  0  0  0  0  0  0  0  0  0
   14.9356   -9.8840    0.0000 C   0  0  0  0  0  0  0  0  0  0  0  0
   15.6428  -10.2935    0.0000 N   0  0  0  0  0  0  0  0  0  0  0  0
   16.3510   -9.8858    0.0000 C   0  0  0  0  0  0  0  0  0  0  0  0
   17.0582  -10.2953    0.0000 C   0  0  0  0  0  0  0  0  0  0  0  0
   16.3521   -9.0686    0.0000 O   0  0  0  0  0  0  0  0  0  0  0  0
   17.7664   -9.8876    0.0000 C   0  0  0  0  0  0  0  0  0  0  0  0
   18.4736  -10.2971    0.0000 N   0  0  0  0  0  0  0  0  0  0  0  0
  1  2  1  0
  1  3  2  0
  2  4  1  1
  2  5  1  0
  5  6  1  0
  5  7  1  0
  5  8  1  0
  6  9  1  0
  9 10  1  0
 10 11  1  0
 10 12  2  0
 10 13  1  0
 11 14  1  0
 14 15  2  0
 14 16  1  0
 14 17  1  0
 17 18  1  0
 19 18  1  1
 19 20  1  0
 20 21  1  0
 21 22  1  0
 22 23  1  0
 23 19  1  0
 20 24  1  6
 21 25  1  6
 26 30  1  0
 29 27  1  0
 27 28  2  0
 28 26  1  0
 22 26  1  1
 29 30  2  0
 30 31  1  0
 31 32  2  0
 32 33  1  0
 33 34  2  0
 34 29  1  0
 34 35  1  0
 24 36  1  0
 36 37  1  0
 36 38  2  0
 36 39  1  0
 41 40  1  0
 42 41  1  0
 40 42  1  0
 43 44  1  0
 44 45  1  0
 45 46  1  0
 46 47  1  0
 43 48  1  0
 47 49  1  0
 49 50  1  0
 50 51  1  0
 51 52  1  0
 52 53  1  0
 53 54  1  0
 54 55  1  0
 55 56  1  0
 41 56  1  6
 41 57  1  0
 57 58  1  0
 57 59  2  0
 58 60  1  0
 60 61  1  0
 61 62  1  0
 62 63  1  0
 63 64  1  0
 63 65  2  0
 64 66  1  0
 66 67  1  0
 67  1  1  0
M  END

> <chembl_id>
CHEMBL2216761

> <chembl_pref_name>
None

$$$$

     RDKit          2D

 64 66  0  0  1  0  0  0  0  0999 V2000
   10.6625   -4.2667    0.0000 N   0  0  0  0  0  0  0  0  0  0  0  0
    9.7625   -5.6167    0.0000 C   0  0  0  0  0  0  0  0  0  0  0  0
    4.6167   -2.3292    0.0000 C   0  0  0  0  0  0  0  0  0  0  0  0
    5.4250   -2.4917    0.0000 C   0  0  0  0  0  0  0  0  0  0  0  0
    9.7625   -2.0917    0.0000 N   0  0  0  0  0  0  0  0  0  0  0  0
    9.0000   -5.9292    0.0000 N   0  0  0  0  0  0  0  0  0  0  0  0
    6.8250   -2.6792    0.0000 C   0  0  0  0  0  0  0  0  0  0  0  0
   10.6625   -3.4417    0.0000 C   0  0  0  0  0  0  0  0  0  0  0  0
    4.0750   -2.9542    0.0000 N   0  0  0  0  0  0  0  0  0  0  0  0
    7.4042   -2.0917    0.0000 N   0  0  0  0  0  0  0  0  0  0  0  0
    9.0000   -1.7792    0.0000 C   0  0  0  0  0  0  0  0  0  0  0  0
    6.5042   -3.4417    0.0000 C   0  0  0  0  0  0  0  0  0  0  0  0
    3.2625   -2.7917    0.0000 C   0  0  0  0  0  0  0  0  0  0  0  0
   10.3417   -5.0292    0.0000 C   0  0  0  0  0  0  0  0  0  0  0  0
    5.6917   -3.2792    0.0000 N   0  0  0  0  0  0  0  0  0  0  0  0
   10.3417   -2.6792    0.0000 C   0  0  0  0  0  0  0  0  0  0  0  0
    1.3625   -3.8792    0.0000 C   0  0  0  0  0  0  0  0  0  0  0  0
    1.9000   -3.2542    0.0000 N   0  0  0  0  0  0  0  0  0  0  0  0
    2.7125   -3.4167    0.0000 C   0  0  0  0  0  0  0  0  0  0  0  0
    7.4042   -5.6167    0.0000 C   0  0  0  0  0  0  0  0  0  0  0  0
    6.8250   -5.0292    0.0000 S   0  0  0  0  0  0  0  0  0  0  0  0
    8.1750   -5.9292    0.0000 C   0  0  0  0  0  0  0  0  0  0  0  0
    8.1750   -1.7792    0.0000 C   0  0  0  0  0  0  0  0  0  0  0  0
    6.5042   -4.2667    0.0000 C   0  0  0  0  0  0  0  0  0  0  0  0
    0.5500   -3.7167    0.0000 C   0  0  0  0  0  0  0  0  0  0  0  0
   10.2167   -6.3042    0.0000 O   0  0  0  0  0  0  0  0  0  0  0  0
    5.8000   -1.7417    0.0000 O   0  0  0  0  0  0  0  0  0  0  0  0
    6.1375   -2.2167    0.0000 O   0  0  0  0  0  0  0  0  0  0  0  0
   11.4750   -3.2792    0.0000 O   0  0  0  0  0  0  0  0  0  0  0  0
    9.1625   -0.9667    0.0000 O   0  0  0  0  0  0  0  0  0  0  0  0
    3.0000   -2.0167    0.0000 O   0  0  0  0  0  0  0  0  0  0  0  0
   11.0375   -2.2167    0.0000 C   0  0  0  0  0  0  0  0  0  0  0  0
    1.6250   -4.6542    0.0000 O   0  0  0  0  0  0  0  0  0  0  0  0
    6.9500   -6.3042    0.0000 O   0  0  0  0  0  0  0  0  0  0  0  0
    0.2792   -2.9292    0.0000 C   0  0  0  0  0  0  0  0  0  0  0  0
    4.3500   -1.5542    0.0000 C   0  0  0  0  0  0  0  0  0  0  0  0
   11.0375   -5.4917    0.0000 C   0  0  0  0  0  0  0  0  0  0  0  0
   -0.5250   -2.7667    0.0000 C   0  0  0  0  0  0  0  0  0  0  0  0
    0.0000   -4.3417    0.0000 N   0  0  0  0  0  0  0  0  0  0  0  0
    8.0125   -6.7417    0.0000 C   0  0  0  0  0  0  0  0  0  0  0  0
   -2.1500   -2.4542    0.0000 C   0  0  0  0  0  0  0  0  0  0  0  0
   10.9792   -1.3917    0.0000 C   0  0  0  0  0  0  0  0  0  0  0  0
    8.4667   -8.1042    0.0000 S   0  0  0  0  0  0  0  0  0  0  0  0
    2.9792   -4.2042    0.0000 C   0  0  0  0  0  0  0  0  0  0  0  0
   -1.0750   -3.3917    0.0000 C   0  0  0  0  0  0  0  0  0  0  0  0
   -0.7958   -1.9917    0.0000 C   0  0  0  0  0  0  0  0  0  0  0  0
   -1.6083   -1.8292    0.0000 C   0  0  0  0  0  0  0  0  0  0  0  0
   -1.8875   -3.2292    0.0000 C   0  0  0  0  0  0  0  0  0  0  0  0
    4.9000   -0.9292    0.0000 O   0  0  0  0  0  0  0  0  0  0  0  0
   -2.9625   -2.2917    0.0000 O   0  0  0  0  0  0  0  0  0  0  0  0
    2.4375   -4.8167    0.0000 O   0  0  0  0  0  0  0  0  0  0  0  0
    8.0125   -0.9667    0.0000 C   0  0  0  0  0  0  0  0  0  0  0  0
    8.6292   -7.2917    0.0000 C   0  0  0  0  0  0  0  0  0  0  0  0
   11.7750   -5.1292    0.0000 C   0  0  0  0  0  0  0  0  0  0  0  0
    3.5375   -1.3917    0.0000 C   0  0  0  0  0  0  0  0  0  0  0  0
    9.0917   -8.6417    0.0000 C   0  0  0  0  0  0  0  0  0  0  0  0
   10.9792   -6.3167    0.0000 C   0  0  0  0  0  0  0  0  0  0  0  0
   11.6667   -0.9292    0.0000 C   0  0  0  0  0  0  0  0  0  0  0  0
   10.2375   -1.0292    0.0000 C   0  0  0  0  0  0  0  0  0  0  0  0
   12.4625   -5.5792    0.0000 C   0  0  0  0  0  0  0  0  0  0  0  0
   11.6125   -0.1042    0.0000 C   0  0  0  0  0  0  0  0  0  0  0  0
   10.1792   -0.2042    0.0000 C   0  0  0  0  0  0  0  0  0  0  0  0
   10.8750    0.2583    0.0000 C   0  0  0  0  0  0  0  0  0  0  0  0
   11.2991   -4.7404    0.0000 H   0  0  0  0  0  0  0  0  0  0  0  0
  2 14  1  0
  3  4  1  0
  4 15  1  0
  5 16  1  0
  6  2  1  0
  7 10  1  0
  8  1  1  0
  3  9  1  1
 10 23  1  0
 11  5  1  0
 12 24  1  0
 13  9  1  0
 14  1  1  0
 12 15  1  1
 16  8  1  0
 17 18  1  0
 19 18  1  6
 19 13  1  0
 20 22  1  0
 21 20  1  0
 22  6  1  0
 23 11  1  0
 24 21  1  0
 25 17  1  0
 26  2  2  0
 27  4  2  0
 28  7  2  0
 29  8  2  0
 30 11  2  0
 31 13  2  0
 16 32  1  6
 33 17  2  0
 34 20  2  0
 25 35  1  0
  3 36  1  0
 14 37  1  0
 38 35  1  0
 25 39  1  1
 22 40  1  6
 41 47  1  0
 42 32  1  0
 43 53  1  0
 19 44  1  0
 45 38  2  0
 46 38  1  0
 47 46  2  0
 48 45  1  0
 36 49  1  1
 50 41  1  0
 51 44  1  0
 23 52  1  6
 53 40  1  0
 54 37  1  0
 55 36  1  0
 56 43  1  0
 37 57  1  6
 58 42  1  0
 59 42  2  0
 60 54  1  0
 61 58  2  0
 62 59  1  0
 63 62  2  0
 63 61  1  0
 12  7  1  0
 41 48  2  0
 14 64  1  1
M  END

> <chembl_id>
CHEMBL311580

> <chembl_pref_name>
None

$$$$

     RDKit          2D

 19 18  0  0  0  0  0  0  0  0999 V2000
   -5.9461   -3.0000    0.0000 C   0  0  0  0  0  0  0  0  0  0  0  0
   -7.2452   -2.2500    0.0000 C   0  0  0  0  0  0  0  0  0  0  0  0
   -8.5442   -3.0000    0.0000 C   0  0  0  0  0  0  0  0  0  0  0  0
   -9.8433   -2.2500    0.0000 C   0  0  0  0  0  0  0  0  0  0  0  0
   -7.2452   -0.7500    0.0000 N   0  0  0  0  0  0  0  0  0  0  0  0
   -5.9461   -4.5000    0.0000 O   0  0  0  0  0  0  0  0  0  0  0  0
   -4.6471   -2.2500    0.0000 O   0  0  0  0  0  0  0  0  0  0  0  0
   -3.3481   -3.0000    0.0000 C   0  0  0  0  0  0  0  0  0  0  0  0
   -2.0490   -2.2500    0.0000 C   0  0  0  0  0  0  0  0  0  0  0  0
  -11.1423   -3.0000    0.0000 C   0  0  0  0  0  0  0  0  0  0  0  0
  -12.4413   -2.2500    0.0000 N   0  0  0  0  0  0  0  0  0  0  0  0
  -11.1423   -4.5000    0.0000 O   0  0  0  0  0  0  0  0  0  0  0  0
  -13.7404   -3.0000    0.0000 C   0  0  0  0  0  0  0  0  0  0  0  0
  -15.0394   -2.2500    0.0000 C   0  0  0  0  0  0  0  0  0  0  0  0
  -16.3385   -3.0000    0.0000 S   0  0  0  0  0  0  0  0  0  0  0  0
  -17.6375   -2.2500    0.0000 C   0  0  0  0  0  0  0  0  0  0  0  0
  -18.9365   -3.0000    0.0000 O   0  0  0  0  0  0  0  0  0  0  0  0
  -17.6375   -0.7500    0.0000 C   0  0  0  0  0  0  0  0  0  0  0  0
   -0.7500   -3.0000    0.0000 C   0  0  0  0  0  0  0  0  0  0  0  0
  1  2  1  0
  2  3  1  0
  3  4  1  0
  2  5  1  6
  1  6  2  0
  8  9  1  0
  7  8  1  0
  1  7  1  0
 10 11  1  0
 10 12  2  0
 13 14  1  0
 16 17  2  0
 16 18  1  0
 15 16  1  0
 14 15  1  0
 11 13  1  0
  4 10  1  0
  9 19  1  0
M  END

> <chembl_id>
CHEMBL3765940

> <chembl_pref_name>
None

$$$$

     RDKit          2D

 13 12  0  0  0  0  0  0  0  0999 V2000
    6.4292   -3.4750    0.0000 C   0  0  0  0  0  0  0  0  0  0  0  0
    7.8625   -6.7750    0.0000 C   0  0  0  0  0  0  0  0  0  0  0  0
    3.5750   -3.4750    0.0000 N   0  0  0  0  0  0  0  0  0  0  0  0
    7.1500   -3.0625    0.0000 O   0  0  0  0  0  0  0  0  0  0  0  0
    7.1500   -7.1875    0.0000 O   0  0  0  0  0  0  0  0  0  0  0  0
    6.4292   -4.3000    0.0000 N   0  0  0  0  0  0  0  0  0  0  0  0
    7.8625   -5.9500    0.0000 S   0  0  0  0  0  0  0  0  0  0  0  0
    4.2917   -3.0625    0.0000 C   0  0  0  0  0  0  0  0  0  0  0  0
    5.7167   -3.0625    0.0000 C   0  0  0  0  0  0  0  0  0  0  0  0
    8.5792   -7.1875    0.0000 C   0  0  0  0  0  0  0  0  0  0  0  0
    7.1500   -4.7125    0.0000 C   0  0  0  0  0  0  0  0  0  0  0  0
    7.1500   -5.5375    0.0000 C   0  0  0  0  0  0  0  0  0  0  0  0
    5.0042   -3.4750    0.0000 C   0  0  0  0  0  0  0  0  0  0  0  0
  2  7  1  0
  3  8  1  0
  4  1  2  0
  5  2  2  0
  6  1  1  0
  7 12  1  0
  8 13  1  0
  9  1  1  0
 10  2  1  0
 11  6  1  0
 12 11  1  0
 13  9  1  0
M  END

> <chembl_id>
CHEMBL1179340

> <chembl_pref_name>
None

$$$$

     RDKit          2D

 12 11  0  0  0  0  0  0  0  0999 V2000
    5.9625   -1.2125    0.0000 C   0  0  0  0  0  0  0  0  0  0  0  0
    9.4792   -1.9417    0.0000 C   0  0  0  0  0  0  0  0  0  0  0  0
    3.8375   -1.5917    0.0000 N   0  0  0  0  0  0  0  0  0  0  0  0
    5.2417   -1.6167    0.0000 C   0  0  0  0  0  0  0  0  0  0  0  0
    5.9625   -0.3875    0.0000 O   0  0  0  0  0  0  0  0  0  0  0  0
    9.4042   -2.7667    0.0000 O   0  0  0  0  0  0  0  0  0  0  0  0
    6.6375   -1.6875    0.0000 N   0  0  0  0  0  0  0  0  0  0  0  0
    8.8042   -1.4667    0.0000 S   0  0  0  0  0  0  0  0  0  0  0  0
    4.5292   -1.2000    0.0000 C   0  0  0  0  0  0  0  0  0  0  0  0
   10.2292   -1.6000    0.0000 C   0  0  0  0  0  0  0  0  0  0  0  0
    7.3875   -1.3417    0.0000 C   0  0  0  0  0  0  0  0  0  0  0  0
    8.0625   -1.8167    0.0000 C   0  0  0  0  0  0  0  0  0  0  0  0
  2  8  1  0
  3  9  1  0
  4  1  1  0
  5  1  2  0
  6  2  2  0
  7  1  1  0
  8 12  1  0
  9  4  1  0
 10  2  1  0
 11  7  1  0
 12 11  1  0
M  END

> <chembl_id>
CHEMBL1185562

> <chembl_pref_name>
None

$$$$

     RDKit          2D

 65 64  0  0  1  0  0  0  0  0999 V2000
    6.4049   -5.8162    0.0000 C   0  0  0  0  0  0  0  0  0  0  0  0
    4.9770   -5.8162    0.0000 N   0  0  0  0  0  0  0  0  0  0  0  0
   11.4153   -6.2296    0.0000 N   0  0  0  0  0  0  0  0  0  0  0  0
   10.7013   -5.8162    0.0000 C   0  0  0  0  0  0  0  0  0  0  0  0
    4.2755   -6.2296    0.0000 C   0  0  0  0  0  0  0  0  0  0  0  0
    8.5594   -6.2296    0.0000 C   0  0  0  0  0  0  0  0  0  0  0  0
    2.1211   -5.8288    0.0000 C   0  0  0  0  0  0  0  0  0  0  0  0
   -0.0208   -6.2546    0.0000 C   0  0  0  0  0  0  0  0  0  0  0  0
    7.1189   -6.2296    0.0000 N   0  0  0  0  0  0  0  0  0  0  0  0
    2.8351   -6.2421    0.0000 N   0  0  0  0  0  0  0  0  0  0  0  0
    9.2734   -5.8162    0.0000 N   0  0  0  0  0  0  0  0  0  0  0  0
    0.6931   -5.8413    0.0000 N   0  0  0  0  0  0  0  0  0  0  0  0
    5.6910   -6.2296    0.0000 C   0  0  0  0  0  0  0  0  0  0  0  0
    7.8454   -5.8162    0.0000 C   0  0  0  0  0  0  0  0  0  0  0  0
   12.1293   -5.8162    0.0000 C   0  0  0  0  0  0  0  0  0  0  0  0
    7.8454   -4.9895    0.0000 C   0  0  0  0  0  0  0  0  0  0  0  0
   -2.1753   -5.8538    0.0000 C   0  0  0  0  0  0  0  0  0  0  0  0
    9.9874   -6.2296    0.0000 C   0  0  0  0  0  0  0  0  0  0  0  0
    3.5490   -5.8288    0.0000 C   0  0  0  0  0  0  0  0  0  0  0  0
    1.4071   -6.2421    0.0000 C   0  0  0  0  0  0  0  0  0  0  0  0
   12.8433   -6.2171    0.0000 C   0  0  0  0  0  0  0  0  0  0  0  0
   -1.4613   -6.2672    0.0000 N   0  0  0  0  0  0  0  0  0  0  0  0
    8.5594   -4.5762    0.0000 C   0  0  0  0  0  0  0  0  0  0  0  0
   -2.8893   -6.2672    0.0000 C   0  0  0  0  0  0  0  0  0  0  0  0
   -0.7473   -5.8413    0.0000 C   0  0  0  0  0  0  0  0  0  0  0  0
   16.4257   -5.7787    0.0000 C   0  0  0  0  0  0  0  0  0  0  0  0
    6.4175   -4.9895    0.0000 O   0  0  0  0  0  0  0  0  0  0  0  0
   10.7013   -4.9895    0.0000 O   0  0  0  0  0  0  0  0  0  0  0  0
    4.2755   -7.0563    0.0000 O   0  0  0  0  0  0  0  0  0  0  0  0
    8.5594   -7.0563    0.0000 O   0  0  0  0  0  0  0  0  0  0  0  0
    2.1211   -5.0020    0.0000 O   0  0  0  0  0  0  0  0  0  0  0  0
   -0.0208   -7.0813    0.0000 O   0  0  0  0  0  0  0  0  0  0  0  0
   -2.1753   -5.0271    0.0000 O   0  0  0  0  0  0  0  0  0  0  0  0
   12.8558   -7.0438    0.0000 O   0  0  0  0  0  0  0  0  0  0  0  0
    1.4071   -7.0688    0.0000 C   0  0  0  0  0  0  0  0  0  0  0  0
    9.9874   -7.0563    0.0000 C   0  0  0  0  0  0  0  0  0  0  0  0
    3.5490   -5.0020    0.0000 C   0  0  0  0  0  0  0  0  0  0  0  0
    9.2734   -4.9895    0.0000 O   0  0  0  0  0  0  0  0  0  0  0  0
   16.4131   -4.9519    0.0000 O   0  0  0  0  0  0  0  0  0  0  0  0
   13.5572   -5.8037    0.0000 S   0  0  0  0  0  0  0  0  0  0  0  0
   15.7117   -6.1920    0.0000 N   0  0  0  0  0  0  0  0  0  0  0  0
    5.6910   -7.0563    0.0000 C   0  0  0  0  0  0  0  0  0  0  0  0
   12.1168   -4.9895    0.0000 C   0  0  0  0  0  0  0  0  0  0  0  0
    8.5594   -3.7495    0.0000 O   0  0  0  0  0  0  0  0  0  0  0  0
   -3.6033   -5.8663    0.0000 C   0  0  0  0  0  0  0  0  0  0  0  0
   -3.6033   -5.0396    0.0000 O   0  0  0  0  0  0  0  0  0  0  0  0
   10.7013   -7.4696    0.0000 C   0  0  0  0  0  0  0  0  0  0  0  0
    2.1336   -7.4822    0.0000 C   0  0  0  0  0  0  0  0  0  0  0  0
    4.2630   -4.5762    0.0000 C   0  0  0  0  0  0  0  0  0  0  0  0
   17.1396   -6.1795    0.0000 C   0  0  0  0  0  0  0  0  0  0  0  0
   -0.7473   -5.0146    0.0000 C   0  0  0  0  0  0  0  0  0  0  0  0
   14.2837   -6.2045    0.0000 C   0  0  0  0  0  0  0  0  0  0  0  0
   14.9852   -5.7912    0.0000 C   0  0  0  0  0  0  0  0  0  0  0  0
   12.8307   -4.5636    0.0000 C   0  0  0  0  0  0  0  0  0  0  0  0
    4.9770   -7.4571    0.0000 C   0  0  0  0  0  0  0  0  0  0  0  0
    6.4049   -7.4696    0.0000 C   0  0  0  0  0  0  0  0  0  0  0  0
   11.4028   -4.5762    0.0000 C   0  0  0  0  0  0  0  0  0  0  0  0
   -4.3172   -6.2797    0.0000 C   0  0  0  0  0  0  0  0  0  0  0  0
    4.9770   -4.9895    0.0000 C   0  0  0  0  0  0  0  0  0  0  0  0
    2.1336   -8.3089    0.0000 C   0  0  0  0  0  0  0  0  0  0  0  0
   10.7013   -8.2964    0.0000 C   0  0  0  0  0  0  0  0  0  0  0  0
   11.4153   -7.0563    0.0000 C   0  0  0  0  0  0  0  0  0  0  0  0
    2.8476   -7.0688    0.0000 C   0  0  0  0  0  0  0  0  0  0  0  0
    4.2505   -3.7495    0.0000 C   0  0  0  0  0  0  0  0  0  0  0  0
   12.8307   -3.7369    0.0000 C   0  0  0  0  0  0  0  0  0  0  0  0
 13  2  1  6
  3  4  1  0
  4 18  1  0
  5  2  1  0
  6 14  1  0
  7 10  1  0
  8 12  1  0
  9  1  1  0
 19 10  1  6
 11  6  1  0
 20 12  1  6
 13  1  1  0
 14  9  1  1
 15  3  1  1
 14 16  1  0
 17 22  1  0
 18 11  1  1
 19  5  1  0
 20  7  1  0
 21 15  1  0
 22 25  1  0
 23 16  1  0
 24 17  1  0
 25  8  1  0
 26 41  1  0
 27  1  2  0
 28  4  2  0
 29  5  2  0
 30  6  2  0
 31  7  2  0
 32  8  2  0
 33 17  2  0
 34 21  2  0
 20 35  1  0
 18 36  1  0
 19 37  1  0
 38 23  2  0
 39 26  2  0
 40 21  1  0
 41 53  1  0
 13 42  1  0
 15 43  1  0
 44 23  1  0
 45 24  1  0
 45 46  1  1
 47 36  1  0
 48 35  1  0
 49 37  1  0
 50 26  1  0
 25 51  1  1
 52 40  1  0
 53 52  1  0
 54 43  1  0
 55 42  1  0
 56 42  1  0
 43 57  1  1
 58 45  1  0
 59 49  1  0
 60 48  1  0
 61 47  1  0
 62 47  1  0
 63 48  1  0
 64 49  1  0
 65 54  1  0
M  END

> <chembl_id>
CHEMBL2371856

> <chembl_pref_name>
None

$$$$

     RDKit          2D

 12 11  0  0  0  0  0  0  0  0999 V2000
    4.8167   -1.5917    0.0000 C   0  0  0  0  0  0  0  0  0  0  0  0
    8.3292   -2.3292    0.0000 C   0  0  0  0  0  0  0  0  0  0  0  0
    4.0417   -2.7167    0.0000 N   0  0  0  0  0  0  0  0  0  0  0  0
    4.8167   -0.7875    0.0000 O   0  0  0  0  0  0  0  0  0  0  0  0
    8.2542   -3.1542    0.0000 O   0  0  0  0  0  0  0  0  0  0  0  0
    5.4875   -2.0667    0.0000 N   0  0  0  0  0  0  0  0  0  0  0  0
    7.6625   -1.8542    0.0000 S   0  0  0  0  0  0  0  0  0  0  0  0
    4.0542   -1.8542    0.0000 C   0  0  0  0  0  0  0  0  0  0  0  0
    9.7542   -2.4667    0.0000 Cl  0  0  0  0  0  0  0  0  0  0  0  0
    9.0792   -1.9875    0.0000 C   0  0  0  0  0  0  0  0  0  0  0  0
    6.2375   -1.7250    0.0000 C   0  0  0  0  0  0  0  0  0  0  0  0
    6.9125   -2.2000    0.0000 C   0  0  0  0  0  0  0  0  0  0  0  0
  2  7  1  0
  3  8  1  0
  4  1  2  0
  5  2  2  0
  6  1  1  0
  7 12  1  0
  8  1  1  0
  9 10  1  0
 10  2  1  0
 11  6  1  0
 12 11  1  0
M  END

> <chembl_id>
CHEMBL1179302

> <chembl_pref_name>
None

$$$$

     RDKit          2D

 14 13  0  0  0  0  0  0  0  0999 V2000
   -3.6250   -7.8042    0.0000 C   0  0  0  0  0  0  0  0  0  0  0  0
   -2.9105   -7.3917    0.0000 C   0  0  0  0  0  0  0  0  0  0  0  0
   -4.3395   -7.3917    0.0000 C   0  0  0  0  0  0  0  0  0  0  0  0
   -2.1961   -7.8042    0.0000 C   0  0  0  0  0  0  0  0  0  0  0  0
   -1.4816   -7.3917    0.0000 C   0  0  0  0  0  0  0  0  0  0  0  0
   -2.1961   -8.6292    0.0000 C   0  0  0  0  0  0  0  0  0  0  0  0
   -0.7671   -7.8042    0.0000 S   0  0  0  0  0  0  0  0  0  0  0  0
   -1.4816   -6.5667    0.0000 O   0  0  0  0  0  0  0  0  0  0  0  0
   -0.0526   -7.3917    0.0000 C   0  0  0  0  0  0  0  0  0  0  0  0
    0.6618   -7.8042    0.0000 C   0  0  0  0  0  0  0  0  0  0  0  0
    1.3763   -7.3917    0.0000 N   0  0  0  0  0  0  0  0  0  0  0  0
    2.0908   -7.8042    0.0000 C   0  0  0  0  0  0  0  0  0  0  0  0
    2.8052   -7.3917    0.0000 C   0  0  0  0  0  0  0  0  0  0  0  0
    2.0908   -8.6292    0.0000 O   0  0  0  0  0  0  0  0  0  0  0  0
  2  4  1  0
  5  8  2  0
  7  9  1  0
  4  5  1  0
  9 10  1  0
  1  3  1  0
 10 11  1  0
  4  6  1  0
 11 12  1  0
  1  2  1  0
 12 13  1  0
  5  7  1  0
 12 14  2  0
M  END

> <chembl_id>
CHEMBL244985

> <chembl_pref_name>
None

$$$$

     RDKit          2D

 35 36  0  0  1  0  0  0  0  0999 V2000
   10.1862   -6.3971    0.0000 N   0  0  0  0  0  0  0  0  0  0  0  0
    9.7191   -7.0802    0.0000 C   0  0  0  0  0  0  0  0  0  0  0  0
   10.2261   -7.7285    0.0000 C   0  0  0  0  0  0  0  0  0  0  0  0
   10.9759   -6.6279    0.0000 C   0  0  0  0  0  0  0  0  0  0  0  0
   10.9978   -7.4553    0.0000 C   0  0  0  0  0  0  0  0  0  0  0  0
   11.8073   -6.6049    0.0000 C   0  0  0  0  0  0  0  0  0  0  0  0
   10.9569   -5.5543    0.0000 C   0  0  0  0  0  0  0  0  0  0  0  0
   11.7273   -5.1339    0.0000 C   0  0  0  0  0  0  0  0  0  0  0  0
   12.4811   -5.5913    0.0000 C   0  0  0  0  0  0  0  0  0  0  0  0
   13.2491   -5.1745    0.0000 C   0  0  0  0  0  0  0  0  0  0  0  0
   13.2747   -4.2969    0.0000 C   0  0  0  0  0  0  0  0  0  0  0  0
   12.5257   -3.8376    0.0000 C   0  0  0  0  0  0  0  0  0  0  0  0
   11.7510   -4.2559    0.0000 C   0  0  0  0  0  0  0  0  0  0  0  0
   10.9625   -4.6917    0.0000 H   0  0  0  0  0  0  0  0  0  0  0  0
    8.8945   -7.1065    0.0000 O   0  0  0  0  0  0  0  0  0  0  0  0
    9.9953   -8.5206    0.0000 C   0  0  0  0  0  0  0  0  0  0  0  0
    9.1940   -8.7168    0.0000 C   0  0  0  0  0  0  0  0  0  0  0  0
    8.9633   -9.5089    0.0000 C   0  0  0  0  0  0  0  0  0  0  0  0
    8.1620   -9.7051    0.0000 C   0  0  0  0  0  0  0  0  0  0  0  0
    7.5914   -9.1093    0.0000 C   0  0  0  0  0  0  0  0  0  0  0  0
    6.7933   -9.3055    0.0000 C   0  0  0  0  0  0  0  0  0  0  0  0
   10.9917   -8.2792    0.0000 C   0  0  0  0  0  0  0  0  0  0  0  0
   10.2437   -5.1395    0.0000 O   0  0  0  0  0  0  0  0  0  0  0  0
   12.2443   -7.3121    0.0000 S   0  0  0  0  0  0  0  0  0  0  0  0
   12.1335   -5.9887    0.0000 O   0  0  0  0  0  0  0  0  0  0  0  0
   11.8208   -7.4542    0.0000 O   0  0  0  0  0  0  0  0  0  0  0  0
   13.0689   -7.2874    0.0000 C   0  0  0  0  0  0  0  0  0  0  0  0
   13.5026   -7.9892    0.0000 C   0  0  0  0  0  0  0  0  0  0  0  0
   13.1116   -8.7157    0.0000 N   0  0  0  0  0  0  0  0  0  0  0  0
   14.3272   -7.9646    0.0000 C   0  0  0  0  0  0  0  0  0  0  0  0
   14.7609   -8.6664    0.0000 O   0  0  0  0  0  0  0  0  0  0  0  0
   14.7182   -7.2381    0.0000 O   0  0  0  0  0  0  0  0  0  0  0  0
   13.5453   -9.4175    0.0000 C   0  0  0  0  0  0  0  0  0  0  0  0
   13.1543  -10.1440    0.0000 O   0  0  0  0  0  0  0  0  0  0  0  0
   14.3699   -9.3929    0.0000 C   0  0  0  0  0  0  0  0  0  0  0  0
 16 17  1  0
  8  9  1  0
 17 18  1  0
  4  5  1  0
 18 19  1  0
 19 20  1  0
  4  1  1  0
 20 21  1  0
  1  2  1  0
  5 22  1  0
  4  6  1  1
  7 23  1  1
  8 13  1  0
  9 10  2  0
  6 24  1  0
  6 25  2  0
 10 11  1  0
  5 26  1  1
 11 12  1  0
 24 27  1  0
 12 13  1  0
 28 27  1  1
  2  3  1  0
 28 29  1  0
  8 14  1  6
 28 30  1  0
  4  7  1  0
 30 31  1  0
  2 15  2  0
 30 32  2  0
  3  5  1  0
 29 33  1  0
  3 16  1  1
 33 34  2  0
  7  8  1  0
 33 35  1  0
M  END

> <chembl_id>
CHEMBL221585

> <chembl_pref_name>
CINNABARAMIDE F

$$$$

     RDKit          2D

 55 57  0  0  0  0  0  0  0  0999 V2000
    5.4250   -0.3291    0.0000 S   0  0  0  0  0  0  0  0  0  0  0  0
    6.1395    0.0834    0.0000 C   0  0  0  0  0  0  0  0  0  0  0  0
    6.8540   -0.3291    0.0000 C   0  0  0  0  0  0  0  0  0  0  0  0
    7.5684    0.0834    0.0000 N   0  0  0  0  0  0  0  0  0  0  0  0
    8.2829   -0.3291    0.0000 C   0  0  0  0  0  0  0  0  0  0  0  0
    8.9974    0.0834    0.0000 C   0  0  0  0  0  0  0  0  0  0  0  0
    8.2829   -1.1541    0.0000 O   0  0  0  0  0  0  0  0  0  0  0  0
    9.7119   -0.3291    0.0000 C   0  0  0  0  0  0  0  0  0  0  0  0
   10.4263    0.0834    0.0000 N   0  0  0  0  0  0  0  0  0  0  0  0
   11.1408   -0.3291    0.0000 C   0  0  0  0  0  0  0  0  0  0  0  0
   11.8553    0.0834    0.0000 C   0  0  0  0  0  0  0  0  0  0  0  0
   11.1408   -1.1541    0.0000 O   0  0  0  0  0  0  0  0  0  0  0  0
   12.5697   -0.3291    0.0000 C   0  0  0  0  0  0  0  0  0  0  0  0
   11.8553    0.9084    0.0000 O   0  0  0  0  0  0  0  0  0  0  0  0
   13.2842    0.0834    0.0000 C   0  0  0  0  0  0  0  0  0  0  0  0
   12.1500   -1.0375    0.0000 C   0  0  0  0  0  0  0  0  0  0  0  0
   12.9750   -1.0375    0.0000 C   0  0  0  0  0  0  0  0  0  0  0  0
   13.9987   -0.3291    0.0000 O   0  0  0  0  0  0  0  0  0  0  0  0
   14.7132    0.0834    0.0000 P   0  0  0  0  0  0  0  0  0  0  0  0
   15.4276   -0.3291    0.0000 O   0  0  0  0  0  0  0  0  0  0  0  0
   14.7084    0.9125    0.0000 O   0  0  0  0  0  0  0  0  0  0  0  0
   14.7084   -0.7375    0.0000 O   0  0  0  0  0  0  0  0  0  0  0  0
   16.1421    0.0834    0.0000 P   0  0  0  0  0  0  0  0  0  0  0  0
   16.8566   -0.3291    0.0000 O   0  0  0  0  0  0  0  0  0  0  0  0
   16.1421    0.9084    0.0000 O   0  0  0  0  0  0  0  0  0  0  0  0
   16.1375   -0.7375    0.0000 O   0  0  0  0  0  0  0  0  0  0  0  0
   17.5710    0.0834    0.0000 C   0  0  0  0  0  0  0  0  0  0  0  0
   18.2864   -0.3286    0.0000 C   0  0  0  0  0  0  0  0  0  0  0  0
   18.5458   -1.1092    0.0000 C   0  0  0  0  0  0  0  0  0  0  0  0
   19.3707   -1.1037    0.0000 C   0  0  0  0  0  0  0  0  0  0  0  0
   19.6205   -0.3173    0.0000 C   0  0  0  0  0  0  0  0  0  0  0  0
   18.9497    0.1630    0.0000 O   0  0  0  0  0  0  0  0  0  0  0  0
   20.3292    0.1000    0.0000 N   0  0  0  0  0  0  0  0  0  0  0  0
   18.1442   -1.8294    0.0000 O   0  0  0  0  0  0  0  0  0  0  0  0
   17.3193   -1.8419    0.0000 P   0  0  0  0  0  0  0  0  0  0  0  0
   16.9177   -2.5625    0.0000 O   0  0  0  0  0  0  0  0  0  0  0  0
   16.8960   -1.1338    0.0000 O   0  0  0  0  0  0  0  0  0  0  0  0
   17.8026   -2.5007    0.0000 O   0  0  0  0  0  0  0  0  0  0  0  0
   19.8601   -1.7679    0.0000 O   0  0  0  0  0  0  0  0  0  0  0  0
   20.9947   -0.3833    0.0000 C   0  0  0  0  0  0  0  0  0  0  0  0
   21.6600    0.1003    0.0000 N   0  0  0  0  0  0  0  0  0  0  0  0
   20.5832    0.8823    0.0000 C   0  0  0  0  0  0  0  0  0  0  0  0
   21.4066    0.8796    0.0000 C   0  0  0  0  0  0  0  0  0  0  0  0
   21.8183    1.5874    0.0000 C   0  0  0  0  0  0  0  0  0  0  0  0
   21.4112    2.3024    0.0000 N   0  0  0  0  0  0  0  0  0  0  0  0
   20.5879    2.3051    0.0000 C   0  0  0  0  0  0  0  0  0  0  0  0
   20.1715    1.5928    0.0000 N   0  0  0  0  0  0  0  0  0  0  0  0
   22.6433    1.5835    0.0000 N   0  0  0  0  0  0  0  0  0  0  0  0
    4.7106    0.0834    0.0000 C   0  0  0  0  0  0  0  0  0  0  0  0
    3.9961   -0.3291    0.0000 C   0  0  0  0  0  0  0  0  0  0  0  0
    4.7106    0.9084    0.0000 O   0  0  0  0  0  0  0  0  0  0  0  0
    3.2816    0.0834    0.0000 C   0  0  0  0  0  0  0  0  0  0  0  0
    2.5671   -0.3291    0.0000 C   0  0  0  0  0  0  0  0  0  0  0  0
    1.8527    0.0834    0.0000 C   0  0  0  0  0  0  0  0  0  0  0  0
    1.1382   -0.3291    0.0000 C   0  0  0  0  0  0  0  0  0  0  0  0
  6  8  1  0
 13 16  1  0
 29 30  1  0
 30 31  1  0
 31 32  1  0
 32 28  1  0
 31 33  1  1
 13 17  1  0
 29 34  1  6
  8  9  1  0
 34 35  1  0
 15 18  1  0
 35 36  1  0
  4  5  1  0
 35 37  2  0
 18 19  1  0
 35 38  1  0
  9 10  1  0
 30 39  1  6
 33 40  1  0
 19 20  1  0
  2  3  1  0
 40 41  2  0
 41 43  1  0
 42 33  1  0
 42 43  2  0
 19 21  2  0
 10 11  1  0
 19 22  1  0
  5  6  1  0
 20 23  1  0
 10 12  2  0
 42 47  1  0
 43 44  1  0
 44 45  2  0
 45 46  1  0
 46 47  2  0
 23 24  1  0
 44 48  1  0
  1  2  1  0
  1 49  1  0
 23 25  2  0
 49 50  1  0
 11 13  1  0
 49 51  2  0
 23 26  1  0
 50 52  1  0
  5  7  2  0
 52 53  2  0
 24 27  1  0
 53 54  1  0
 11 14  1  0
 54 55  1  0
 28 27  1  1
 28 29  1  0
  3  4  1  0
 13 15  1  0
M  END

> <chembl_id>
CHEMBL1949903

> <chembl_pref_name>
None

$$$$

     RDKit          2D

 23 22  0  0  0  0  0  0  0  0999 V2000
   15.9635    0.6495    0.0000 C   0  0  0  0  0  0  0  0  0  0  0  0
   14.6644   -0.1005    0.0000 C   0  0  0  0  0  0  0  0  0  0  0  0
   13.3654    0.6495    0.0000 C   0  0  0  0  0  0  0  0  0  0  0  0
   12.0663   -0.1005    0.0000 C   0  0  0  0  0  0  0  0  0  0  0  0
   14.6644   -1.6005    0.0000 N   0  0  0  0  0  0  0  0  0  0  0  0
   15.9635    2.1495    0.0000 O   0  0  0  0  0  0  0  0  0  0  0  0
   17.2625   -0.1005    0.0000 O   0  0  0  0  0  0  0  0  0  0  0  0
   18.5615    0.6495    0.0000 C   0  0  0  0  0  0  0  0  0  0  0  0
   19.8606   -0.1005    0.0000 C   0  0  0  0  0  0  0  0  0  0  0  0
   10.7673    0.6495    0.0000 C   0  0  0  0  0  0  0  0  0  0  0  0
    9.4683   -0.1005    0.0000 N   0  0  0  0  0  0  0  0  0  0  0  0
   10.7673    2.1495    0.0000 O   0  0  0  0  0  0  0  0  0  0  0  0
    8.1692    0.6495    0.0000 C   0  0  0  0  0  0  0  0  0  0  0  0
    6.8702   -0.1005    0.0000 C   0  0  0  0  0  0  0  0  0  0  0  0
    5.5712    0.6495    0.0000 S   0  0  0  0  0  0  0  0  0  0  0  0
    4.2721   -0.1005    0.0000 C   0  0  0  0  0  0  0  0  0  0  0  0
    2.9731    0.6495    0.0000 C   0  0  0  0  0  0  0  0  0  0  0  0
    4.2721   -1.6005    0.0000 O   0  0  0  0  0  0  0  0  0  0  0  0
    1.6740   -0.1005    0.0000 C   0  0  0  0  0  0  0  0  0  0  0  0
    2.9731    2.1495    0.0000 C   0  0  0  0  0  0  0  0  0  0  0  0
    1.6740    1.3995    0.0000 C   0  0  0  0  0  0  0  0  0  0  0  0
   21.1596    0.6496    0.0000 C   0  0  0  0  0  0  0  0  0  0  0  0
   22.4587   -0.1004    0.0000 C   0  0  0  0  0  0  0  0  0  0  0  0
  1  2  1  0
  2  3  1  0
  3  4  1  0
  2  5  1  1
  1  6  2  0
  8  9  1  0
  7  8  1  0
  1  7  1  0
 10 11  1  0
 10 12  2  0
 13 14  1  0
 16 17  1  0
 16 18  2  0
 15 16  1  0
 14 15  1  0
 11 13  1  0
  4 10  1  0
 17 19  1  0
 17 20  1  0
 17 21  1  0
  9 22  1  0
 22 23  1  0
M  END

> <chembl_id>
CHEMBL3765832

> <chembl_pref_name>
None

$$$$

     RDKit          2D

 18 17  0  0  0  0  0  0  0  0999 V2000
    4.6471    3.0000    0.0000 C   0  0  0  0  0  0  0  0  0  0  0  0
    5.9462    2.2500    0.0000 C   0  0  0  0  0  0  0  0  0  0  0  0
    7.2452    3.0000    0.0000 C   0  0  0  0  0  0  0  0  0  0  0  0
    8.5442    2.2500    0.0000 C   0  0  0  0  0  0  0  0  0  0  0  0
    5.9462    0.7500    0.0000 N   0  0  0  0  0  0  0  0  0  0  0  0
    4.6471    4.5000    0.0000 O   0  0  0  0  0  0  0  0  0  0  0  0
    3.3481    2.2500    0.0000 O   0  0  0  0  0  0  0  0  0  0  0  0
    2.0490    3.0000    0.0000 C   0  0  0  0  0  0  0  0  0  0  0  0
    0.7500    2.2500    0.0000 C   0  0  0  0  0  0  0  0  0  0  0  0
    9.8433    3.0000    0.0000 C   0  0  0  0  0  0  0  0  0  0  0  0
   11.1423    2.2500    0.0000 N   0  0  0  0  0  0  0  0  0  0  0  0
    9.8433    4.5000    0.0000 O   0  0  0  0  0  0  0  0  0  0  0  0
   12.4413    3.0000    0.0000 C   0  0  0  0  0  0  0  0  0  0  0  0
   13.7404    2.2500    0.0000 C   0  0  0  0  0  0  0  0  0  0  0  0
   15.0394    3.0000    0.0000 S   0  0  0  0  0  0  0  0  0  0  0  0
   16.3385    2.2500    0.0000 C   0  0  0  0  0  0  0  0  0  0  0  0
   17.6375    3.0000    0.0000 O   0  0  0  0  0  0  0  0  0  0  0  0
   16.3385    0.7500    0.0000 C   0  0  0  0  0  0  0  0  0  0  0  0
  1  2  1  0
  2  3  1  0
  3  4  1  0
  2  5  1  6
  1  6  2  0
  8  9  1  0
  7  8  1  0
  1  7  1  0
 10 11  1  0
 10 12  2  0
 13 14  1  0
 16 17  2  0
 16 18  1  0
 15 16  1  0
 14 15  1  0
 11 13  1  0
  4 10  1  0
M  END

> <chembl_id>
CHEMBL3765939

> <chembl_pref_name>
None

$$$$

     RDKit          2D

 21 19  0  0  0  0  0  0  0  0999 V2000
    9.0792   -1.9875    0.0000 C   0  0  0  0  0  0  0  0  0  0  0  0
    8.3292   -2.3292    0.0000 C   0  0  0  0  0  0  0  0  0  0  0  0
    4.8167   -1.5917    0.0000 C   0  0  0  0  0  0  0  0  0  0  0  0
    4.0417   -2.7167    0.0000 N   0  0  0  0  0  0  0  0  0  0  0  0
    8.2542   -3.1542    0.0000 O   0  0  0  0  0  0  0  0  0  0  0  0
    4.8167   -0.7875    0.0000 O   0  0  0  0  0  0  0  0  0  0  0  0
    9.2917   -1.1875    0.0000 Cl  0  0  0  0  0  0  0  0  0  0  0  0
    9.8792   -1.7667    0.0000 Cl  0  0  0  0  0  0  0  0  0  0  0  0
    9.7542   -2.4667    0.0000 Cl  0  0  0  0  0  0  0  0  0  0  0  0
    7.6625   -1.8542    0.0000 S   0  0  0  0  0  0  0  0  0  0  0  0
    5.4875   -2.0667    0.0000 N   0  0  0  0  0  0  0  0  0  0  0  0
    4.0542   -1.8542    0.0000 C   0  0  0  0  0  0  0  0  0  0  0  0
    6.9125   -2.2000    0.0000 C   0  0  0  0  0  0  0  0  0  0  0  0
    6.2375   -1.7250    0.0000 C   0  0  0  0  0  0  0  0  0  0  0  0
    4.6125   -5.6542    0.0000 C   0  0  0  0  0  0  0  0  0  0  0  0
    4.6125   -6.4792    0.0000 C   0  0  0  0  0  0  0  0  0  0  0  0
    5.3292   -6.8917    0.0000 O   0  0  0  0  0  0  0  0  0  0  0  0
    3.9000   -6.8917    0.0000 O   0  0  0  0  0  0  0  0  0  0  0  0
    4.6125   -4.9750    0.0000 F   0  0  0  0  0  0  0  0  0  0  0  0
    5.2250   -5.1625    0.0000 F   0  0  0  0  0  0  0  0  0  0  0  0
    4.0042   -5.1625    0.0000 F   0  0  0  0  0  0  0  0  0  0  0  0
  2  1  1  0
  3 11  1  0
  4 12  1  0
  5  2  2  0
  6  3  2  0
  7  1  1  0
  8  1  1  0
  9  1  1  0
 10  2  1  0
 11 14  1  0
 12  3  1  0
 13 10  1  0
 14 13  1  0
 16 15  1  0
 17 16  1  0
 18 16  2  0
 19 15  1  0
 20 15  1  0
 21 15  1  0
M  END

> <chembl_id>
CHEMBL419446

> <chembl_pref_name>
None

$$$$

     RDKit          2D

 45 46  0  0  1  0  0  0  0  0999 V2000
    1.3000    1.0958    0.0000 N   0  0  0  0  0  0  0  0  0  0  0  0
    1.8167   -0.4417    0.0000 C   0  0  0  0  0  0  0  0  0  0  0  0
   -2.4083   -0.1667    0.0000 N   0  0  0  0  0  0  0  0  0  0  0  0
   -0.9833    1.7000    0.0000 N   0  0  0  0  0  0  0  0  0  0  0  0
    1.6000   -1.2417    0.0000 N   0  0  0  0  0  0  0  0  0  0  0  0
   -2.3000   -0.9792    0.0000 C   0  0  0  0  0  0  0  0  0  0  0  0
    0.6375    1.5958    0.0000 C   0  0  0  0  0  0  0  0  0  0  0  0
   -1.7000    1.2958    0.0000 C   0  0  0  0  0  0  0  0  0  0  0  0
   -1.8875   -1.7000    0.0000 C   0  0  0  0  0  0  0  0  0  0  0  0
    1.7125    0.3833    0.0000 C   0  0  0  0  0  0  0  0  0  0  0  0
   -2.2000    0.6333    0.0000 C   0  0  0  0  0  0  0  0  0  0  0  0
   -0.1625    1.8083    0.0000 C   0  0  0  0  0  0  0  0  0  0  0  0
    0.3792   -2.3042    0.0000 C   0  0  0  0  0  0  0  0  0  0  0  0
   -0.4375   -2.4167    0.0000 S   0  0  0  0  0  0  0  0  0  0  0  0
   -2.9458    1.0000    0.0000 C   0  0  0  0  0  0  0  0  0  0  0  0
   -2.5083   -2.2417    0.0000 N   0  0  0  0  0  0  0  0  0  0  0  0
    1.1000   -1.9000    0.0000 C   0  0  0  0  0  0  0  0  0  0  0  0
   -3.0000    1.8333    0.0000 C   0  0  0  0  0  0  0  0  0  0  0  0
   -1.2375   -2.2042    0.0000 C   0  0  0  0  0  0  0  0  0  0  0  0
   -2.3458   -3.0542    0.0000 C   0  0  0  0  0  0  0  0  0  0  0  0
    2.6375   -0.5000    0.0000 O   0  0  0  0  0  0  0  0  0  0  0  0
   -3.0833   -1.2542    0.0000 O   0  0  0  0  0  0  0  0  0  0  0  0
    0.9792    2.1000    0.0000 O   0  0  0  0  0  0  0  0  0  0  0  0
   -2.0875    1.7000    0.0000 O   0  0  0  0  0  0  0  0  0  0  0  0
   -0.1083    2.6333    0.0000 C   0  0  0  0  0  0  0  0  0  0  0  0
    0.6542   -3.1000    0.0000 O   0  0  0  0  0  0  0  0  0  0  0  0
   -2.3000    2.2833    0.0000 O   0  0  0  0  0  0  0  0  0  0  0  0
   -1.5625   -3.3167    0.0000 O   0  0  0  0  0  0  0  0  0  0  0  0
    2.4917    0.6458    0.0000 C   0  0  0  0  0  0  0  0  0  0  0  0
    1.6375   -2.5167    0.0000 C   0  0  0  0  0  0  0  0  0  0  0  0
   -3.7375    2.1958    0.0000 O   0  0  0  0  0  0  0  0  0  0  0  0
    0.6375    3.0000    0.0000 C   0  0  0  0  0  0  0  0  0  0  0  0
    1.9292   -3.9167    0.0000 S   0  0  0  0  0  0  0  0  0  0  0  0
   -2.9625   -3.6042    0.0000 C   0  0  0  0  0  0  0  0  0  0  0  0
    1.3792   -3.3042    0.0000 C   0  0  0  0  0  0  0  0  0  0  0  0
    3.1167    0.0958    0.0000 C   0  0  0  0  0  0  0  0  0  0  0  0
    1.6542   -4.7042    0.0000 C   0  0  0  0  0  0  0  0  0  0  0  0
    2.6542    1.4583    0.0000 C   0  0  0  0  0  0  0  0  0  0  0  0
    1.3167    2.5458    0.0000 C   0  0  0  0  0  0  0  0  0  0  0  0
    0.6917    3.8333    0.0000 C   0  0  0  0  0  0  0  0  0  0  0  0
    3.9000    0.3625    0.0000 C   0  0  0  0  0  0  0  0  0  0  0  0
    2.0625    2.9083    0.0000 C   0  0  0  0  0  0  0  0  0  0  0  0
    1.4375    4.1875    0.0000 C   0  0  0  0  0  0  0  0  0  0  0  0
    2.1167    3.7458    0.0000 C   0  0  0  0  0  0  0  0  0  0  0  0
    2.0653    1.3190    0.0000 H   0  0  0  0  0  0  0  0  0  0  0  0
  2 10  1  0
  3 11  1  0
  4 12  1  0
  5  2  1  0
  6  3  1  0
  7  1  1  0
  8  4  1  0
  9 19  1  0
 10  1  1  0
 11  8  1  0
 12  7  1  0
 13 17  1  0
 14 13  1  0
 11 15  1  6
  9 16  1  1
 17  5  1  0
 18 15  1  0
 19 14  1  0
 20 16  1  0
 21  2  2  0
 22  6  2  0
 23  7  2  0
 24  8  2  0
 12 25  1  1
 26 13  2  0
 27 18  2  0
 28 20  2  0
 10 29  1  0
 17 30  1  1
 31 18  1  0
 32 25  1  0
 33 35  1  0
 34 20  1  0
 35 30  1  0
 36 29  1  0
 37 33  1  0
 29 38  1  1
 39 32  2  0
 40 32  1  0
 41 36  1  0
 42 39  1  0
 43 40  2  0
 44 43  1  0
 42 44  2  0
  6  9  1  0
 10 45  1  1
M  END

> <chembl_id>
CHEMBL362839

> <chembl_pref_name>
None

$$$$

     RDKit          2D

 59 61  0  0  0  0  0  0  0  0999 V2000
    2.7750  -10.6625    0.0000 S   0  0  0  0  0  0  0  0  0  0  0  0
    3.4895  -10.2500    0.0000 C   0  0  0  0  0  0  0  0  0  0  0  0
    4.2039  -10.6625    0.0000 C   0  0  0  0  0  0  0  0  0  0  0  0
    4.9184  -10.2500    0.0000 N   0  0  0  0  0  0  0  0  0  0  0  0
    5.6329  -10.6625    0.0000 C   0  0  0  0  0  0  0  0  0  0  0  0
    6.3474  -10.2500    0.0000 C   0  0  0  0  0  0  0  0  0  0  0  0
    5.6329  -11.4875    0.0000 O   0  0  0  0  0  0  0  0  0  0  0  0
    7.0618  -10.6625    0.0000 C   0  0  0  0  0  0  0  0  0  0  0  0
    7.7763  -10.2500    0.0000 N   0  0  0  0  0  0  0  0  0  0  0  0
    8.4908  -10.6625    0.0000 C   0  0  0  0  0  0  0  0  0  0  0  0
    9.2052  -10.2500    0.0000 C   0  0  0  0  0  0  0  0  0  0  0  0
    8.4908  -11.4875    0.0000 O   0  0  0  0  0  0  0  0  0  0  0  0
    9.9197  -10.6625    0.0000 C   0  0  0  0  0  0  0  0  0  0  0  0
    9.2052   -9.4250    0.0000 O   0  0  0  0  0  0  0  0  0  0  0  0
   10.6342  -10.2500    0.0000 C   0  0  0  0  0  0  0  0  0  0  0  0
    9.5000  -11.3708    0.0000 C   0  0  0  0  0  0  0  0  0  0  0  0
   10.3250  -11.3708    0.0000 C   0  0  0  0  0  0  0  0  0  0  0  0
   11.3487  -10.6625    0.0000 O   0  0  0  0  0  0  0  0  0  0  0  0
   12.0631  -10.2500    0.0000 P   0  0  0  0  0  0  0  0  0  0  0  0
   12.7776  -10.6625    0.0000 O   0  0  0  0  0  0  0  0  0  0  0  0
   12.0583   -9.4208    0.0000 O   0  0  0  0  0  0  0  0  0  0  0  0
   12.0583  -11.0708    0.0000 O   0  0  0  0  0  0  0  0  0  0  0  0
   13.4921  -10.2500    0.0000 P   0  0  0  0  0  0  0  0  0  0  0  0
   14.2065  -10.6625    0.0000 O   0  0  0  0  0  0  0  0  0  0  0  0
   13.4921   -9.4250    0.0000 O   0  0  0  0  0  0  0  0  0  0  0  0
   13.4875  -11.0708    0.0000 O   0  0  0  0  0  0  0  0  0  0  0  0
   14.9210  -10.2500    0.0000 C   0  0  0  0  0  0  0  0  0  0  0  0
   15.6363  -10.6619    0.0000 C   0  0  0  0  0  0  0  0  0  0  0  0
   15.8957  -11.4426    0.0000 C   0  0  0  0  0  0  0  0  0  0  0  0
   16.7207  -11.4371    0.0000 C   0  0  0  0  0  0  0  0  0  0  0  0
   16.9704  -10.6507    0.0000 C   0  0  0  0  0  0  0  0  0  0  0  0
   16.2997  -10.1704    0.0000 O   0  0  0  0  0  0  0  0  0  0  0  0
   17.6792  -10.2333    0.0000 N   0  0  0  0  0  0  0  0  0  0  0  0
   15.4942  -12.1627    0.0000 O   0  0  0  0  0  0  0  0  0  0  0  0
   14.6693  -12.1753    0.0000 P   0  0  0  0  0  0  0  0  0  0  0  0
   14.2677  -12.8959    0.0000 O   0  0  0  0  0  0  0  0  0  0  0  0
   14.2460  -11.4671    0.0000 O   0  0  0  0  0  0  0  0  0  0  0  0
   15.1526  -12.8341    0.0000 O   0  0  0  0  0  0  0  0  0  0  0  0
   17.2101  -12.1012    0.0000 O   0  0  0  0  0  0  0  0  0  0  0  0
   18.3446  -10.7166    0.0000 C   0  0  0  0  0  0  0  0  0  0  0  0
   19.0100  -10.2331    0.0000 N   0  0  0  0  0  0  0  0  0  0  0  0
   17.9332   -9.4511    0.0000 C   0  0  0  0  0  0  0  0  0  0  0  0
   18.7566   -9.4538    0.0000 C   0  0  0  0  0  0  0  0  0  0  0  0
   19.1683   -8.7460    0.0000 C   0  0  0  0  0  0  0  0  0  0  0  0
   18.7612   -8.0310    0.0000 N   0  0  0  0  0  0  0  0  0  0  0  0
   17.9378   -8.0283    0.0000 C   0  0  0  0  0  0  0  0  0  0  0  0
   17.5215   -8.7406    0.0000 N   0  0  0  0  0  0  0  0  0  0  0  0
   19.9933   -8.7498    0.0000 N   0  0  0  0  0  0  0  0  0  0  0  0
    2.0605  -10.2500    0.0000 C   0  0  0  0  0  0  0  0  0  0  0  0
    1.3461  -10.6625    0.0000 C   0  0  0  0  0  0  0  0  0  0  0  0
    2.0605   -9.4250    0.0000 O   0  0  0  0  0  0  0  0  0  0  0  0
    0.6316  -10.2500    0.0000 C   0  0  0  0  0  0  0  0  0  0  0  0
   -0.0829  -10.6625    0.0000 C   0  0  0  0  0  0  0  0  0  0  0  0
   -0.0829  -11.4875    0.0000 C   0  0  0  0  0  0  0  0  0  0  0  0
   -0.7974  -11.9000    0.0000 C   0  0  0  0  0  0  0  0  0  0  0  0
   -1.5119  -11.4875    0.0000 C   0  0  0  0  0  0  0  0  0  0  0  0
   -2.2263  -11.9000    0.0000 C   0  0  0  0  0  0  0  0  0  0  0  0
   -2.9408  -11.4874    0.0000 C   0  0  0  0  0  0  0  0  0  0  0  0
   -3.6553  -11.8999    0.0000 C   0  0  0  0  0  0  0  0  0  0  0  0
 29 30  1  0
 30 31  1  0
 31 32  1  0
 32 28  1  0
 31 33  1  1
 13 17  1  0
 29 34  1  6
  8  9  1  0
 34 35  1  0
 15 18  1  0
 35 36  1  0
  4  5  1  0
 35 37  2  0
 18 19  1  0
 35 38  1  0
  9 10  1  0
 30 39  1  6
 33 40  1  0
 19 20  1  0
  2  3  1  0
 40 41  2  0
 41 43  1  0
 42 33  1  0
 42 43  2  0
 19 21  2  0
 10 11  1  0
 19 22  1  0
  5  6  1  0
 20 23  1  0
 10 12  2  0
 42 47  1  0
 43 44  1  0
 44 45  2  0
 45 46  1  0
 46 47  2  0
 23 24  1  0
 44 48  1  0
  1  2  1  0
  1 49  1  0
 23 25  2  0
 49 50  1  0
 11 13  1  0
 49 51  2  0
 23 26  1  0
 50 52  1  0
  5  7  2  0
 52 53  2  0
 24 27  1  0
 11 14  1  0
 53 54  1  0
 54 55  1  0
 28 27  1  1
 55 56  1  0
 28 29  1  0
 56 57  1  0
  3  4  1  0
 57 58  1  0
 13 15  1  0
 58 59  1  0
  6  8  1  0
 13 16  1  0
M  END

> <chembl_id>
CHEMBL1949902

> <chembl_pref_name>
None

$$$$

     RDKit          2D

 59 61  0  0  0  0  0  0  0  0999 V2000
    5.4250   -0.3291    0.0000 S   0  0  0  0  0  0  0  0  0  0  0  0
    6.1395    0.0834    0.0000 C   0  0  0  0  0  0  0  0  0  0  0  0
    6.8540   -0.3291    0.0000 C   0  0  0  0  0  0  0  0  0  0  0  0
    7.5684    0.0834    0.0000 N   0  0  0  0  0  0  0  0  0  0  0  0
    8.2829   -0.3291    0.0000 C   0  0  0  0  0  0  0  0  0  0  0  0
    8.9974    0.0834    0.0000 C   0  0  0  0  0  0  0  0  0  0  0  0
    8.2829   -1.1541    0.0000 O   0  0  0  0  0  0  0  0  0  0  0  0
    9.7119   -0.3291    0.0000 C   0  0  0  0  0  0  0  0  0  0  0  0
   10.4263    0.0834    0.0000 N   0  0  0  0  0  0  0  0  0  0  0  0
   11.1408   -0.3291    0.0000 C   0  0  0  0  0  0  0  0  0  0  0  0
   11.8553    0.0834    0.0000 C   0  0  0  0  0  0  0  0  0  0  0  0
   11.1408   -1.1541    0.0000 O   0  0  0  0  0  0  0  0  0  0  0  0
   12.5697   -0.3291    0.0000 C   0  0  0  0  0  0  0  0  0  0  0  0
   11.8553    0.9084    0.0000 O   0  0  0  0  0  0  0  0  0  0  0  0
   13.2842    0.0834    0.0000 C   0  0  0  0  0  0  0  0  0  0  0  0
   12.1500   -1.0375    0.0000 C   0  0  0  0  0  0  0  0  0  0  0  0
   12.9750   -1.0375    0.0000 C   0  0  0  0  0  0  0  0  0  0  0  0
   13.9987   -0.3291    0.0000 O   0  0  0  0  0  0  0  0  0  0  0  0
   14.7132    0.0834    0.0000 P   0  0  0  0  0  0  0  0  0  0  0  0
   15.4276   -0.3291    0.0000 O   0  0  0  0  0  0  0  0  0  0  0  0
   14.7084    0.9125    0.0000 O   0  0  0  0  0  0  0  0  0  0  0  0
   14.7084   -0.7375    0.0000 O   0  0  0  0  0  0  0  0  0  0  0  0
   16.1421    0.0834    0.0000 P   0  0  0  0  0  0  0  0  0  0  0  0
   16.8566   -0.3291    0.0000 O   0  0  0  0  0  0  0  0  0  0  0  0
   16.1421    0.9084    0.0000 O   0  0  0  0  0  0  0  0  0  0  0  0
   16.1375   -0.7375    0.0000 O   0  0  0  0  0  0  0  0  0  0  0  0
   17.5710    0.0834    0.0000 C   0  0  0  0  0  0  0  0  0  0  0  0
   18.2864   -0.3286    0.0000 C   0  0  0  0  0  0  0  0  0  0  0  0
   18.5458   -1.1092    0.0000 C   0  0  0  0  0  0  0  0  0  0  0  0
   19.3707   -1.1037    0.0000 C   0  0  0  0  0  0  0  0  0  0  0  0
   19.6205   -0.3173    0.0000 C   0  0  0  0  0  0  0  0  0  0  0  0
   18.9497    0.1630    0.0000 O   0  0  0  0  0  0  0  0  0  0  0  0
   20.3292    0.1000    0.0000 N   0  0  0  0  0  0  0  0  0  0  0  0
   18.1442   -1.8294    0.0000 O   0  0  0  0  0  0  0  0  0  0  0  0
   17.3193   -1.8419    0.0000 P   0  0  0  0  0  0  0  0  0  0  0  0
   16.9177   -2.5625    0.0000 O   0  0  0  0  0  0  0  0  0  0  0  0
   16.8960   -1.1338    0.0000 O   0  0  0  0  0  0  0  0  0  0  0  0
   17.8026   -2.5007    0.0000 O   0  0  0  0  0  0  0  0  0  0  0  0
   19.8601   -1.7679    0.0000 O   0  0  0  0  0  0  0  0  0  0  0  0
   20.9947   -0.3833    0.0000 C   0  0  0  0  0  0  0  0  0  0  0  0
   21.6600    0.1003    0.0000 N   0  0  0  0  0  0  0  0  0  0  0  0
   20.5832    0.8823    0.0000 C   0  0  0  0  0  0  0  0  0  0  0  0
   21.4066    0.8796    0.0000 C   0  0  0  0  0  0  0  0  0  0  0  0
   21.8183    1.5874    0.0000 C   0  0  0  0  0  0  0  0  0  0  0  0
   21.4112    2.3024    0.0000 N   0  0  0  0  0  0  0  0  0  0  0  0
   20.5879    2.3051    0.0000 C   0  0  0  0  0  0  0  0  0  0  0  0
   20.1715    1.5928    0.0000 N   0  0  0  0  0  0  0  0  0  0  0  0
   22.6433    1.5835    0.0000 N   0  0  0  0  0  0  0  0  0  0  0  0
    4.7106    0.0834    0.0000 C   0  0  0  0  0  0  0  0  0  0  0  0
    3.9961   -0.3291    0.0000 C   0  0  0  0  0  0  0  0  0  0  0  0
    4.7106    0.9084    0.0000 O   0  0  0  0  0  0  0  0  0  0  0  0
    3.2816    0.0834    0.0000 C   0  0  0  0  0  0  0  0  0  0  0  0
    2.5671   -0.3291    0.0000 C   0  0  0  0  0  0  0  0  0  0  0  0
    1.8527    0.0834    0.0000 C   0  0  0  0  0  0  0  0  0  0  0  0
    1.1382   -0.3291    0.0000 C   0  0  0  0  0  0  0  0  0  0  0  0
    0.4237    0.0834    0.0000 C   0  0  0  0  0  0  0  0  0  0  0  0
   -0.2908   -0.3291    0.0000 C   0  0  0  0  0  0  0  0  0  0  0  0
   -1.0052    0.0834    0.0000 C   0  0  0  0  0  0  0  0  0  0  0  0
   -1.7197   -0.3291    0.0000 C   0  0  0  0  0  0  0  0  0  0  0  0
 30 31  1  0
 31 32  1  0
 32 28  1  0
 31 33  1  1
 13 17  1  0
 29 34  1  6
  8  9  1  0
 34 35  1  0
 15 18  1  0
 35 36  1  0
  4  5  1  0
 35 37  2  0
 18 19  1  0
 35 38  1  0
  9 10  1  0
 30 39  1  6
 33 40  1  0
 19 20  1  0
  2  3  1  0
 40 41  2  0
 41 43  1  0
 42 33  1  0
 42 43  2  0
 19 21  2  0
 10 11  1  0
 19 22  1  0
  5  6  1  0
 20 23  1  0
 10 12  2  0
 42 47  1  0
 43 44  1  0
 44 45  2  0
 45 46  1  0
 46 47  2  0
 23 24  1  0
 44 48  1  0
  1  2  1  0
  1 49  1  0
 23 25  2  0
 49 50  1  0
 11 13  1  0
 49 51  2  0
 23 26  1  0
 50 52  1  0
  5  7  2  0
 52 53  2  0
 24 27  1  0
 53 54  1  0
 11 14  1  0
 54 55  1  0
 28 27  1  1
 28 29  1  0
  3  4  1  0
 13 15  1  0
 55 56  1  0
  6  8  1  0
 56 57  1  0
 13 16  1  0
 57 58  1  0
 29 30  1  0
 58 59  1  0
M  END

> <chembl_id>
CHEMBL1949905

> <chembl_pref_name>
None

$$$$

     RDKit          2D

 20 18  0  0  0  0  0  0  0  0999 V2000
    8.3292   -2.3292    0.0000 C   0  0  0  0  0  0  0  0  0  0  0  0
    9.0792   -1.9875    0.0000 C   0  0  0  0  0  0  0  0  0  0  0  0
    4.8167   -1.5917    0.0000 C   0  0  0  0  0  0  0  0  0  0  0  0
    4.0417   -2.7167    0.0000 N   0  0  0  0  0  0  0  0  0  0  0  0
    8.2542   -3.1542    0.0000 O   0  0  0  0  0  0  0  0  0  0  0  0
    4.8167   -0.7875    0.0000 O   0  0  0  0  0  0  0  0  0  0  0  0
    7.6625   -1.8542    0.0000 S   0  0  0  0  0  0  0  0  0  0  0  0
    5.4875   -2.0667    0.0000 N   0  0  0  0  0  0  0  0  0  0  0  0
    9.2917   -1.1875    0.0000 Cl  0  0  0  0  0  0  0  0  0  0  0  0
    9.7542   -2.4667    0.0000 Cl  0  0  0  0  0  0  0  0  0  0  0  0
    4.0542   -1.8542    0.0000 C   0  0  0  0  0  0  0  0  0  0  0  0
    6.9125   -2.2000    0.0000 C   0  0  0  0  0  0  0  0  0  0  0  0
    6.2375   -1.7250    0.0000 C   0  0  0  0  0  0  0  0  0  0  0  0
    4.6125   -5.6542    0.0000 C   0  0  0  0  0  0  0  0  0  0  0  0
    4.6125   -6.4792    0.0000 C   0  0  0  0  0  0  0  0  0  0  0  0
    5.3292   -6.8917    0.0000 O   0  0  0  0  0  0  0  0  0  0  0  0
    3.9000   -6.8917    0.0000 O   0  0  0  0  0  0  0  0  0  0  0  0
    4.6125   -4.9750    0.0000 F   0  0  0  0  0  0  0  0  0  0  0  0
    5.2250   -5.1625    0.0000 F   0  0  0  0  0  0  0  0  0  0  0  0
    4.0042   -5.1625    0.0000 F   0  0  0  0  0  0  0  0  0  0  0  0
  2  1  1  0
  3  8  1  0
  4 11  1  0
  5  1  2  0
  6  3  2  0
  7  1  1  0
  8 13  1  0
  9  2  1  0
 10  2  1  0
 11  3  1  0
 12  7  1  0
 13 12  1  0
 15 14  1  0
 16 15  1  0
 17 15  2  0
 18 14  1  0
 19 14  1  0
 20 14  1  0
M  END

> <chembl_id>
CHEMBL70469

> <chembl_pref_name>
None

$$$$

     RDKit          2D

 66 70  0  0  0  0  0  0  0  0999 V2000
    4.7422   -6.6092    0.0000 C   0  0  0  0  0  0  0  0  0  0  0  0
    5.4512   -7.0155    0.0000 C   0  0  0  0  0  0  0  0  0  0  0  0
    4.7425   -5.7927    0.0000 C   0  0  0  0  0  0  0  0  0  0  0  0
    4.0344   -5.3865    0.0000 C   0  0  0  0  0  0  0  0  0  0  0  0
    3.3270   -5.7974    0.0000 C   0  0  0  0  0  0  0  0  0  0  0  0
    3.3322   -6.6188    0.0000 C   0  0  0  0  0  0  0  0  0  0  0  0
    4.0410   -7.0214    0.0000 C   0  0  0  0  0  0  0  0  0  0  0  0
   13.9366   -5.3830    0.0000 C   0  0  0  0  0  0  0  0  0  0  0  0
   14.6438   -5.7925    0.0000 C   0  0  0  0  0  0  0  0  0  0  0  0
   13.9376   -4.5658    0.0000 O   0  0  0  0  0  0  0  0  0  0  0  0
   14.6427   -6.6097    0.0000 O   0  0  0  0  0  0  0  0  0  0  0  0
   15.3520   -5.3848    0.0000 C   0  0  0  0  0  0  0  0  0  0  0  0
   16.0592   -5.7943    0.0000 C   0  0  0  0  0  0  0  0  0  0  0  0
   15.9270   -4.8000    0.0000 C   0  0  0  0  0  0  0  0  0  0  0  0
   14.7672   -4.8000    0.0000 C   0  0  0  0  0  0  0  0  0  0  0  0
   16.7674   -5.3866    0.0000 O   0  0  0  0  0  0  0  0  0  0  0  0
   17.4746   -5.7961    0.0000 P   0  0  0  0  0  0  0  0  0  0  0  0
   18.1828   -5.3884    0.0000 O   0  0  0  0  0  0  0  0  0  0  0  0
   17.0578   -6.5004    0.0000 O   0  0  0  0  0  0  0  0  0  0  0  0
   18.0484   -6.3724    0.0000 O   0  0  0  0  0  0  0  0  0  0  0  0
   18.8900   -5.7979    0.0000 P   0  0  0  0  0  0  0  0  0  0  0  0
   18.6716   -6.5829    0.0000 O   0  0  0  0  0  0  0  0  0  0  0  0
   19.2907   -6.5004    0.0000 O   0  0  0  0  0  0  0  0  0  0  0  0
   19.5920   -5.3819    0.0000 O   0  0  0  0  0  0  0  0  0  0  0  0
   20.3043   -5.7824    0.0000 C   0  0  0  0  0  0  0  0  0  0  0  0
   20.9475   -5.2781    0.0000 C   0  0  0  0  0  0  0  0  0  0  0  0
   21.7294   -5.5007    0.0000 C   0  0  0  0  0  0  0  0  0  0  0  0
   22.1854   -4.8226    0.0000 C   0  0  0  0  0  0  0  0  0  0  0  0
   21.6813   -4.1793    0.0000 C   0  0  0  0  0  0  0  0  0  0  0  0
   20.9139   -4.4600    0.0000 O   0  0  0  0  0  0  0  0  0  0  0  0
   22.0101   -6.2681    0.0000 O   0  0  0  0  0  0  0  0  0  0  0  0
   23.0021   -4.7929    0.0000 O   0  0  0  0  0  0  0  0  0  0  0  0
   21.9196   -3.3985    0.0000 N   0  0  0  0  0  0  0  0  0  0  0  0
   21.8910   -2.0777    0.0000 N   0  0  0  0  0  0  0  0  0  0  0  0
   21.4264   -2.7511    0.0000 C   0  0  0  0  0  0  0  0  0  0  0  0
   22.6748   -2.3128    0.0000 C   0  0  0  0  0  0  0  0  0  0  0  0
   22.6889   -3.1308    0.0000 C   0  0  0  0  0  0  0  0  0  0  0  0
   23.4032   -3.5258    0.0000 N   0  0  0  0  0  0  0  0  0  0  0  0
   24.1039   -3.1040    0.0000 N   0  0  0  0  0  0  0  0  0  0  0  0
   24.0858   -2.2830    0.0000 C   0  0  0  0  0  0  0  0  0  0  0  0
   23.3710   -1.8917    0.0000 C   0  0  0  0  0  0  0  0  0  0  0  0
   23.3533   -1.0747    0.0000 N   0  0  0  0  0  0  0  0  0  0  0  0
   21.4859   -6.8950    0.0000 P   0  0  0  0  0  0  0  0  0  0  0  0
   21.8867   -7.5982    0.0000 O   0  0  0  0  0  0  0  0  0  0  0  0
   20.9003   -6.3105    0.0000 O   0  0  0  0  0  0  0  0  0  0  0  0
   20.9003   -7.4703    0.0000 O   0  0  0  0  0  0  0  0  0  0  0  0
    8.2786   -5.3752    0.0000 S   0  0  0  0  0  0  0  0  0  0  0  0
    8.9858   -5.7847    0.0000 C   0  0  0  0  0  0  0  0  0  0  0  0
    9.6940   -5.3771    0.0000 C   0  0  0  0  0  0  0  0  0  0  0  0
   10.4012   -5.7866    0.0000 N   0  0  0  0  0  0  0  0  0  0  0  0
   11.1094   -5.3789    0.0000 C   0  0  0  0  0  0  0  0  0  0  0  0
   11.8166   -5.7884    0.0000 C   0  0  0  0  0  0  0  0  0  0  0  0
   11.1105   -4.5617    0.0000 O   0  0  0  0  0  0  0  0  0  0  0  0
   12.5249   -5.3807    0.0000 C   0  0  0  0  0  0  0  0  0  0  0  0
   13.2320   -5.7902    0.0000 N   0  0  0  0  0  0  0  0  0  0  0  0
    7.5693   -5.7822    0.0000 C   0  0  0  0  0  0  0  0  0  0  0  0
    8.3576   -6.8099    0.0000 C   0  0  0  0  0  0  0  0  0  0  0  0
    7.5693   -6.5994    0.0000 C   0  0  0  0  0  0  0  0  0  0  0  0
    7.7812   -7.3874    0.0000 O   0  0  0  0  0  0  0  0  0  0  0  0
    6.1576   -6.6046    0.0000 C   0  0  0  0  0  0  0  0  0  0  0  0
    6.8666   -7.0110    0.0000 C   0  0  0  0  0  0  0  0  0  0  0  0
    6.8632   -5.3734    0.0000 O   0  0  0  0  0  0  0  0  0  0  0  0
    2.6273   -7.0322    0.0000 C   0  0  0  0  0  0  0  0  0  0  0  0
    1.9169   -6.6283    0.0000 F   0  0  0  0  0  0  0  0  0  0  0  0
    2.6328   -7.8493    0.0000 F   0  0  0  0  0  0  0  0  0  0  0  0
    1.9150   -7.4331    0.0000 F   0  0  0  0  0  0  0  0  0  0  0  0
  1  2  1  0
  1  3  2  0
  3  4  1  0
  4  5  2  0
  5  6  1  0
  6  7  2  0
  7  1  1  0
  8  9  1  0
  8 10  2  0
  9 11  1  1
  9 12  1  0
 12 13  1  0
 12 14  1  0
 12 15  1  0
 13 16  1  0
 16 17  1  0
 17 18  1  0
 17 19  2  0
 17 20  1  0
 18 21  1  0
 21 22  2  0
 21 23  1  0
 21 24  1  0
 24 25  1  0
 26 25  1  1
 26 27  1  0
 27 28  1  0
 28 29  1  0
 29 30  1  0
 30 26  1  0
 27 31  1  6
 28 32  1  6
 33 37  1  0
 36 34  1  0
 34 35  2  0
 35 33  1  0
 29 33  1  1
 36 37  2  0
 37 38  1  0
 38 39  2  0
 39 40  1  0
 40 41  2  0
 41 36  1  0
 41 42  1  0
 31 43  1  0
 43 44  1  0
 43 45  2  0
 43 46  1  0
 56 47  1  0
 47 48  1  0
 48 49  1  0
 49 50  1  0
 50 51  1  0
 51 52  1  0
 51 53  2  0
 52 54  1  0
 54 55  1  0
 55  8  1  0
 58 57  1  0
 59 58  1  0
 57 59  1  0
  2 60  1  0
 60 61  1  0
 58 61  1  0
 58 56  1  0
 56 62  2  0
  6 63  1  0
 63 64  1  0
 63 65  1  0
 63 66  1  0
M  END

> <chembl_id>
CHEMBL2216794

> <chembl_pref_name>
None

$$$$

     RDKit          2D

 37 38  0  0  1  0  0  0  0  0999 V2000
   -0.9583  -10.3917    0.0000 N   0  0  0  0  0  0  0  0  0  0  0  0
   -0.3463  -10.0375    0.0000 C   0  0  0  0  0  0  0  0  0  0  0  0
    0.2699  -10.3917    0.0000 C   0  0  0  0  0  0  0  0  0  0  0  0
    0.2699  -11.1000    0.0000 O   0  0  0  0  0  0  0  0  0  0  0  0
   -0.3463   -9.3292    0.0000 C   0  0  0  0  0  0  0  0  0  0  0  0
    0.2699   -8.9750    0.0000 S   0  0  0  0  0  0  0  0  0  0  0  0
    2.5833  -10.7458    0.0000 N   0  0  0  0  0  0  0  0  0  0  0  0
    2.1750  -10.1750    0.0000 C   0  0  0  0  0  0  0  0  0  0  0  0
    2.1583  -11.3125    0.0000 C   0  0  0  0  0  0  0  0  0  0  0  0
    1.5000  -10.3875    0.0000 C   0  0  0  0  0  0  0  0  0  0  0  0
    1.4917  -11.0917    0.0000 C   0  0  0  0  0  0  0  0  0  0  0  0
    8.6833  -10.7042    0.0000 C   0  0  0  0  0  0  0  0  0  0  0  0
    5.1208   -9.8625    0.0000 C   0  0  0  0  0  0  0  0  0  0  0  0
    6.2458  -10.7042    0.0000 N   0  0  0  0  0  0  0  0  0  0  0  0
    6.8542  -10.3542    0.0000 C   0  0  0  0  0  0  0  0  0  0  0  0
    8.0667  -10.3542    0.0000 N   0  0  0  0  0  0  0  0  0  0  0  0
    9.2958  -10.3542    0.0000 C   0  0  0  0  0  0  0  0  0  0  0  0
    5.6250  -10.3583    0.0000 C   0  0  0  0  0  0  0  0  0  0  0  0
    2.1708   -9.4750    0.0000 O   0  0  0  0  0  0  0  0  0  0  0  0
    2.1583  -12.0125    0.0000 O   0  0  0  0  0  0  0  0  0  0  0  0
    8.6833  -11.4125    0.0000 O   0  0  0  0  0  0  0  0  0  0  0  0
    9.9000  -10.7042    0.0000 C   0  0  0  0  0  0  0  0  0  0  0  0
    4.4208   -9.8625    0.0000 O   0  0  0  0  0  0  0  0  0  0  0  0
    6.8500   -9.6458    0.0000 O   0  0  0  0  0  0  0  0  0  0  0  0
    7.4667  -10.7042    0.0000 C   0  0  0  0  0  0  0  0  0  0  0  0
    3.1833  -10.3875    0.0000 C   0  0  0  0  0  0  0  0  0  0  0  0
    5.3125   -9.1833    0.0000 O   0  0  0  0  0  0  0  0  0  0  0  0
   10.5042  -10.3583    0.0000 C   0  0  0  0  0  0  0  0  0  0  0  0
    9.2875   -9.6500    0.0000 C   0  0  0  0  0  0  0  0  0  0  0  0
    9.8917   -9.3000    0.0000 C   0  0  0  0  0  0  0  0  0  0  0  0
    5.0208  -10.7208    0.0000 C   0  0  0  0  0  0  0  0  0  0  0  0
   10.5125   -9.6500    0.0000 C   0  0  0  0  0  0  0  0  0  0  0  0
   11.1083  -10.7042    0.0000 I   0  0  0  0  0  0  0  0  0  0  0  0
    3.8000  -10.7375    0.0000 C   0  0  0  0  0  0  0  0  0  0  0  0
    4.4042  -10.3667    0.0000 C   0  0  0  0  0  0  0  0  0  0  0  0
    6.0917   -9.5375    0.0000 H   0  0  0  0  0  0  0  0  0  0  0  0
    0.8833  -10.0333    0.0000 S   0  0  0  0  0  0  0  0  0  0  0  0
  2  5  1  1
  5  6  1  0
  1  2  1  0
  2  3  1  0
  8  7  1  0
  9  7  1  0
 10  8  1  0
 11  9  1  0
 12 16  1  0
 18 13  1  6
 14 18  1  0
 15 14  1  0
 16 25  1  0
 17 12  1  0
 18 31  1  0
 19  8  2  0
 20  9  2  0
 21 12  2  0
 22 17  2  0
 23 13  2  0
 24 15  2  0
 25 15  1  0
 26  7  1  0
 27 13  1  0
 28 22  1  0
 29 17  1  0
 30 29  2  0
 31 35  1  0
 32 30  1  0
 33 28  1  0
 34 26  1  0
 35 34  1  0
 18 36  1  1
 10 11  1  0
 28 32  2  0
  3  4  2  0
 10 37  1  0
 37  3  1  0
M  END

> <chembl_id>
CHEMBL1908970

> <chembl_pref_name>
None

$$$$

     RDKit          2D

 63 64  0  0  0  0  0  0  0  0999 V2000
   -0.6292   -7.4000    0.0000 Na  0  0  0  0  0 15  0  0  0  0  0  0
   -3.9042   -5.7625    0.0000 N   0  0  0  0  0  0  0  0  0  0  0  0
   -3.6583   -5.2667    0.0000 C   0  0  0  0  0  0  0  0  0  0  0  0
   -4.5000   -5.8750    0.0000 C   0  0  0  0  0  0  0  0  0  0  0  0
   -4.5667   -6.4083    0.0000 C   0  0  0  0  0  0  0  0  0  0  0  0
   -3.9625   -4.8042    0.0000 C   0  0  0  0  0  0  0  0  0  0  0  0
   -3.5542   -4.4042    0.0000 C   0  0  0  0  0  0  0  0  0  0  0  0
   -4.0083   -6.6292    0.0000 N   0  0  0  0  0  0  0  0  0  0  0  0
   -3.6000   -6.2292    0.0000 C   0  0  0  0  0  0  0  0  0  0  0  0
   -3.0667   -5.1583    0.0000 O   0  0  0  0  0  0  0  0  0  0  0  0
   -1.4250   -4.3500    0.0000 P   0  0  0  0  0  0  0  0  0  0  0  0
   -0.3708   -4.3500    0.0000 P   0  0  0  0  0  0  0  0  0  0  0  0
   -0.9000   -4.0833    0.0000 O   0  0  0  0  0  0  0  0  0  0  0  0
   -3.0042   -4.6208    0.0000 C   0  0  0  0  0  0  0  0  0  0  0  0
   -4.2625   -3.7083    0.0000 P   0  0  0  0  0  0  0  0  0  0  0  0
   -5.1208   -6.6292    0.0000 C   0  0  0  0  0  0  0  0  0  0  0  0
   -4.9917   -5.5583    0.0000 N   0  0  0  0  0  0  0  0  0  0  0  0
   -3.6792   -3.8792    0.0000 O   0  0  0  0  0  0  0  0  0  0  0  0
   -5.6125   -6.3125    0.0000 N   0  0  0  0  0  0  0  0  0  0  0  0
    2.2583   -4.6208    0.0000 C   0  0  0  0  0  0  0  0  0  0  0  0
    1.2083   -4.6208    0.0000 C   0  0  0  0  0  0  0  0  0  0  0  0
   -2.4792   -4.3500    0.0000 C   0  0  0  0  0  0  0  0  0  0  0  0
    1.7375   -4.8917    0.0000 C   0  0  0  0  0  0  0  0  0  0  0  0
   -5.5500   -5.7792    0.0000 C   0  0  0  0  0  0  0  0  0  0  0  0
    4.3708   -4.6208    0.0000 C   0  0  0  0  0  0  0  0  0  0  0  0
   -1.9500   -4.6208    0.0000 O   0  0  0  0  0  0  0  0  0  0  0  0
    7.0083   -4.8917    0.0000 C   0  0  0  0  0  0  0  0  0  0  0  0
    0.1542   -4.6208    0.0000 O   0  0  0  0  0  0  0  0  0  0  0  0
   -0.6750   -4.8167    0.0000 O   0  0  0  0  0  0  0  0  0  0  0  0
   -1.1208   -4.8167    0.0000 O   0  0  0  0  0  0  0  0  0  0  0  0
   -4.8375   -3.5417    0.0000 O   0  0  0  0  0  0  0  0  0  0  0  0
    0.6833   -4.3500    0.0000 C   0  0  0  0  0  0  0  0  0  0  0  0
    3.8417   -4.8917    0.0000 C   0  0  0  0  0  0  0  0  0  0  0  0
    2.2583   -4.0833    0.0000 O   0  0  0  0  0  0  0  0  0  0  0  0
    8.0583   -4.8917    0.0000 C   0  0  0  0  0  0  0  0  0  0  0  0
    4.3708   -4.0833    0.0000 O   0  0  0  0  0  0  0  0  0  0  0  0
   -4.5667   -4.7458    0.0000 O   0  0  0  0  0  0  0  0  0  0  0  0
    7.0083   -5.4292    0.0000 O   0  0  0  0  0  0  0  0  0  0  0  0
    2.7875   -4.8917    0.0000 N   0  0  0  0  0  0  0  0  0  0  0  0
   -1.7292   -3.8833    0.0000 O   0  0  0  0  0  0  0  0  0  0  0  0
   -0.0667   -3.8833    0.0000 O   0  0  0  0  0  0  0  0  0  0  0  0
   -4.0750   -3.1958    0.0000 O   0  0  0  0  0  0  0  0  0  0  0  0
   -4.4500   -4.2208    0.0000 O   0  0  0  0  0  0  0  0  0  0  0  0
    7.5292   -4.6208    0.0000 C   0  0  0  0  0  0  0  0  0  0  0  0
    8.0583   -5.4292    0.0000 C   0  0  0  0  0  0  0  0  0  0  0  0
   -5.1833   -7.1667    0.0000 N   0  0  0  0  0  0  0  0  0  0  0  0
    4.8958   -4.8917    0.0000 N   0  0  0  0  0  0  0  0  0  0  0  0
    6.4792   -4.6208    0.0000 S   0  0  0  0  0  0  0  0  0  0  0  0
    3.3125   -4.6208    0.0000 C   0  0  0  0  0  0  0  0  0  0  0  0
    1.7375   -5.4292    0.0000 O   0  0  0  0  0  0  0  0  0  0  0  0
    0.9042   -5.0875    0.0000 C   0  0  0  0  0  0  0  0  0  0  0  0
    1.5125   -4.1542    0.0000 C   0  0  0  0  0  0  0  0  0  0  0  0
    8.5833   -4.6208    0.0000 C   0  0  0  0  0  0  0  0  0  0  0  0
    5.4250   -4.6208    0.0000 C   0  0  0  0  0  0  0  0  0  0  0  0
    5.9500   -4.8917    0.0000 C   0  0  0  0  0  0  0  0  0  0  0  0
    9.1083   -4.8917    0.0000 C   0  0  0  0  0  0  0  0  0  0  0  0
   12.2708   -4.8917    0.0000 C   0  0  0  0  0  0  0  0  0  0  0  0
   11.7458   -4.6208    0.0000 C   0  0  0  0  0  0  0  0  0  0  0  0
   11.2167   -4.8917    0.0000 C   0  0  0  0  0  0  0  0  0  0  0  0
    9.6375   -4.6208    0.0000 C   0  0  0  0  0  0  0  0  0  0  0  0
   10.1625   -4.8917    0.0000 C   0  0  0  0  0  0  0  0  0  0  0  0
   10.6917   -4.6208    0.0000 C   0  0  0  0  0  0  0  0  0  0  0  0
   12.7958   -4.6208    0.0000 C   0  0  0  0  0  0  0  0  0  0  0  0
  3  2  1  0
  4  2  1  0
  5  4  2  0
  6  3  1  0
  7  6  1  0
  8  9  2  0
  9  2  1  0
 10  3  1  0
 11 26  1  0
 12 13  1  0
 13 11  1  0
 14 10  1  0
 15 18  1  0
 16  5  1  0
 17  4  1  0
 18  7  1  0
 19 16  2  0
 20 23  1  0
 21 32  1  0
 22 14  1  0
 23 21  1  0
 24 17  2  0
 25 33  1  0
 26 22  1  0
 27 48  1  0
 28 12  1  0
 29 12  2  0
 30 11  2  0
 31 15  2  0
 32 28  1  0
 33 49  1  0
 34 20  2  0
 35 44  1  0
 36 25  2  0
 37  6  1  0
 38 27  2  0
 39 20  1  0
 40 11  1  0
 41 12  1  0
 42 15  1  0
 43 15  1  0
 44 27  1  0
 45 35  2  0
 46 16  1  0
 47 25  1  0
 48 55  1  0
 49 39  1  0
 50 23  1  0
 51 21  1  0
 52 21  1  0
 53 35  1  0
 54 47  1  0
 55 54  1  0
 56 53  1  0
 57 58  1  0
 58 59  1  0
 59 62  1  0
 60 56  1  0
 61 60  1  0
 62 61  1  0
 63 57  1  0
  5  8  1  0
 24 19  1  0
 14  7  1  0
M  CHG  2   1   1  42  -1
M  END

> <chembl_id>
CHEMBL2028288

> <chembl_pref_name>
None

$$$$

     RDKit          2D

 15 14  0  0  0  0  0  0  0  0999 V2000
    1.8167   -4.3667    0.0000 C   0  0  0  0  0  0  0  0  0  0  0  0
   -0.3208   -4.7792    0.0000 C   0  0  0  0  0  0  0  0  0  0  0  0
    5.3792   -4.7792    0.0000 C   0  0  0  0  0  0  0  0  0  0  0  0
    0.3917   -4.3667    0.0000 N   0  0  0  0  0  0  0  0  0  0  0  0
    1.8167   -3.5417    0.0000 O   0  0  0  0  0  0  0  0  0  0  0  0
   -0.3208   -5.6042    0.0000 O   0  0  0  0  0  0  0  0  0  0  0  0
    5.3792   -5.6042    0.0000 O   0  0  0  0  0  0  0  0  0  0  0  0
    1.1042   -4.7792    0.0000 C   0  0  0  0  0  0  0  0  0  0  0  0
    2.5292   -4.7792    0.0000 N   0  0  0  0  0  0  0  0  0  0  0  0
    4.6667   -4.3667    0.0000 S   0  0  0  0  0  0  0  0  0  0  0  0
   -1.7458   -4.7792    0.0000 N   0  0  0  0  0  0  0  0  0  0  0  0
   -1.0333   -4.3667    0.0000 C   0  0  0  0  0  0  0  0  0  0  0  0
    6.0917   -4.3667    0.0000 C   0  0  0  0  0  0  0  0  0  0  0  0
    3.2417   -4.3667    0.0000 C   0  0  0  0  0  0  0  0  0  0  0  0
    3.9542   -4.7792    0.0000 C   0  0  0  0  0  0  0  0  0  0  0  0
  2  4  1  0
  3 10  1  0
  4  8  1  0
  5  1  2  0
  6  2  2  0
  7  3  2  0
  8  1  1  0
  9  1  1  0
 10 15  1  0
 11 12  1  0
 12  2  1  0
 13  3  1  0
 14  9  1  0
 15 14  1  0
M  END

> <chembl_id>
CHEMBL319134

> <chembl_pref_name>
None

$$$$

     RDKit          2D

 19 17  0  0  0  0  0  0  0  0999 V2000
    6.0167   -4.9000    0.0000 C   0  0  0  0  0  0  0  0  0  0  0  0
    9.5417   -5.6292    0.0000 C   0  0  0  0  0  0  0  0  0  0  0  0
    5.2292   -5.9792    0.0000 N   0  0  0  0  0  0  0  0  0  0  0  0
    6.0167   -4.0667    0.0000 O   0  0  0  0  0  0  0  0  0  0  0  0
    5.2375   -5.1792    0.0000 C   0  0  0  0  0  0  0  0  0  0  0  0
    9.4667   -6.4542    0.0000 O   0  0  0  0  0  0  0  0  0  0  0  0
    6.6917   -5.3750    0.0000 N   0  0  0  0  0  0  0  0  0  0  0  0
    8.8667   -5.1542    0.0000 S   0  0  0  0  0  0  0  0  0  0  0  0
   10.2917   -5.2875    0.0000 C   0  0  0  0  0  0  0  0  0  0  0  0
    7.4417   -5.0292    0.0000 C   0  0  0  0  0  0  0  0  0  0  0  0
    8.1167   -5.5042    0.0000 C   0  0  0  0  0  0  0  0  0  0  0  0
    4.5542   -4.7125    0.0000 C   0  0  0  0  0  0  0  0  0  0  0  0
    6.4542   -8.2500    0.0000 C   0  0  0  0  0  0  0  0  0  0  0  0
    6.4542   -9.0750    0.0000 C   0  0  0  0  0  0  0  0  0  0  0  0
    7.1750   -9.4875    0.0000 O   0  0  0  0  0  0  0  0  0  0  0  0
    5.7417   -9.4875    0.0000 O   0  0  0  0  0  0  0  0  0  0  0  0
    6.4542   -7.5667    0.0000 F   0  0  0  0  0  0  0  0  0  0  0  0
    7.0667   -7.7542    0.0000 F   0  0  0  0  0  0  0  0  0  0  0  0
    5.8500   -7.7542    0.0000 F   0  0  0  0  0  0  0  0  0  0  0  0
  2  8  1  0
  3  5  1  0
  4  1  2  0
  5  1  1  0
  6  2  2  0
  7  1  1  0
  8 11  1  0
  9  2  1  0
 10  7  1  0
 11 10  1  0
  5 12  1  1
 14 13  1  0
 15 14  1  0
 16 14  2  0
 17 13  1  0
 18 13  1  0
 19 13  1  0
M  END

> <chembl_id>
CHEMBL72336

> <chembl_pref_name>
None

$$$$

     RDKit          2D

 19 19  0  0  0  0  0  0  0  0999 V2000
   12.7257   -6.0436    0.0000 C   0  0  0  0  0  0  0  0  0  0  0  0
   12.7245   -6.8711    0.0000 C   0  0  0  0  0  0  0  0  0  0  0  0
   13.4374   -7.2840    0.0000 C   0  0  0  0  0  0  0  0  0  0  0  0
   14.1568   -6.8707    0.0000 C   0  0  0  0  0  0  0  0  0  0  0  0
   14.1536   -6.0395    0.0000 C   0  0  0  0  0  0  0  0  0  0  0  0
   13.4354   -5.6308    0.0000 C   0  0  0  0  0  0  0  0  0  0  0  0
   12.0160   -5.6215    0.0000 O   0  0  0  0  0  0  0  0  0  0  0  0
   14.8715   -7.2825    0.0000 C   0  0  0  0  0  0  0  0  0  0  0  0
   15.5856   -6.8693    0.0000 C   0  0  0  0  0  0  0  0  0  0  0  0
   16.3005   -7.2812    0.0000 C   0  0  0  0  0  0  0  0  0  0  0  0
   17.0144   -6.8680    0.0000 S   0  0  0  0  0  0  0  0  0  0  0  0
   16.3011   -8.1061    0.0000 O   0  0  0  0  0  0  0  0  0  0  0  0
   17.7293   -7.2798    0.0000 C   0  0  0  0  0  0  0  0  0  0  0  0
   18.4434   -6.8667    0.0000 C   0  0  0  0  0  0  0  0  0  0  0  0
   19.1581   -7.2785    0.0000 N   0  0  0  0  0  0  0  0  0  0  0  0
   19.8722   -6.8654    0.0000 C   0  0  0  0  0  0  0  0  0  0  0  0
   20.5871   -7.2772    0.0000 C   0  0  0  0  0  0  0  0  0  0  0  0
   19.8715   -6.0404    0.0000 O   0  0  0  0  0  0  0  0  0  0  0  0
   11.3027   -6.0405    0.0000 C   0  0  0  0  0  0  0  0  0  0  0  0
  4  5  1  0
  9 10  1  0
  2  3  1  0
 10 11  1  0
  5  6  2  0
 10 12  2  0
  6  1  1  0
 11 13  1  0
  1  2  2  0
 13 14  1  0
  1  7  1  0
 14 15  1  0
  3  4  2  0
 15 16  1  0
  4  8  1  0
 16 17  1  0
 16 18  2  0
  8  9  2  0
 19  7  1  0
M  END

> <chembl_id>
CHEMBL179909

> <chembl_pref_name>
None

$$$$

     RDKit          2D

 56 59  0  0  1  0  0  0  0  0999 V2000
    5.3792   -1.8917    0.0000 N   0  0  0  0  0  0  0  0  0  0  0  0
    5.3792   -3.2292    0.0000 C   0  0  0  0  0  0  0  0  0  0  0  0
    4.5917   -1.6625    0.0000 C   0  0  0  0  0  0  0  0  0  0  0  0
    4.5917   -0.8542    0.0000 C   0  0  0  0  0  0  0  0  0  0  0  0
    5.1417   -3.9667    0.0000 C   0  0  0  0  0  0  0  0  0  0  0  0
    4.2917   -3.9667    0.0000 C   0  0  0  0  0  0  0  0  0  0  0  0
    5.3792   -0.6042    0.0000 N   0  0  0  0  0  0  0  0  0  0  0  0
    5.8417   -1.2417    0.0000 C   0  0  0  0  0  0  0  0  0  0  0  0
    4.7042   -2.7500    0.0000 O   0  0  0  0  0  0  0  0  0  0  0  0
    9.0667   -2.5917    0.0000 C   0  0  0  0  0  0  0  0  0  0  0  0
    2.1917   -3.9500    0.0000 P   0  0  0  0  0  0  0  0  0  0  0  0
    1.1167   -5.2542    0.0000 P   0  0  0  0  0  0  0  0  0  0  0  0
    1.6417   -4.6125    0.0000 O   0  0  0  0  0  0  0  0  0  0  0  0
    4.0667   -3.2000    0.0000 C   0  0  0  0  0  0  0  0  0  0  0  0
    8.6417   -3.3167    0.0000 C   0  0  0  0  0  0  0  0  0  0  0  0
    4.1667   -5.3625    0.0000 P   0  0  0  0  0  0  0  0  0  0  0  0
    9.4667   -3.3167    0.0000 C   0  0  0  0  0  0  0  0  0  0  0  0
    3.9167   -0.4500    0.0000 C   0  0  0  0  0  0  0  0  0  0  0  0
    3.8917   -2.0500    0.0000 N   0  0  0  0  0  0  0  0  0  0  0  0
    3.8417   -4.6125    0.0000 O   0  0  0  0  0  0  0  0  0  0  0  0
    3.2792   -0.8375    0.0000 N   0  0  0  0  0  0  0  0  0  0  0  0
    2.9792   -7.4042    0.0000 C   0  0  0  0  0  0  0  0  0  0  0  0
    1.2792   -7.3167    0.0000 C   0  0  0  0  0  0  0  0  0  0  0  0
    3.3417   -2.9750    0.0000 C   0  0  0  0  0  0  0  0  0  0  0  0
    2.2542   -7.0375    0.0000 C   0  0  0  0  0  0  0  0  0  0  0  0
    7.9167   -3.7375    0.0000 C   0  0  0  0  0  0  0  0  0  0  0  0
    3.2792   -1.6375    0.0000 C   0  0  0  0  0  0  0  0  0  0  0  0
    7.9167   -4.5625    0.0000 C   0  0  0  0  0  0  0  0  0  0  0  0
    5.9167   -7.5042    0.0000 C   0  0  0  0  0  0  0  0  0  0  0  0
    2.7042   -3.3417    0.0000 O   0  0  0  0  0  0  0  0  0  0  0  0
    0.5042   -6.0042    0.0000 O   0  0  0  0  0  0  0  0  0  0  0  0
    2.8042   -4.4750    0.0000 O   0  0  0  0  0  0  0  0  0  0  0  0
    0.5167   -4.7625    0.0000 O   0  0  0  0  0  0  0  0  0  0  0  0
    4.8417   -5.0500    0.0000 O   0  0  0  0  0  0  0  0  0  0  0  0
    9.0542   -1.7625    0.0000 C   0  0  0  0  0  0  0  0  0  0  0  0
    0.4917   -6.9625    0.0000 C   0  0  0  0  0  0  0  0  0  0  0  0
    5.2292   -7.0667    0.0000 C   0  0  0  0  0  0  0  0  0  0  0  0
    2.9792   -8.2250    0.0000 O   0  0  0  0  0  0  0  0  0  0  0  0
    5.9167   -8.3750    0.0000 O   0  0  0  0  0  0  0  0  0  0  0  0
    8.6417   -4.9792    0.0000 O   0  0  0  0  0  0  0  0  0  0  0  0
    5.5917   -4.6417    0.0000 O   0  0  0  0  0  0  0  0  0  0  0  0
    3.7792   -7.0375    0.0000 N   0  0  0  0  0  0  0  0  0  0  0  0
    1.7167   -5.7625    0.0000 O   0  0  0  0  0  0  0  0  0  0  0  0
    1.5417   -3.3917    0.0000 O   0  0  0  0  0  0  0  0  0  0  0  0
    4.5542   -6.2250    0.0000 O   0  0  0  0  0  0  0  0  0  0  0  0
    3.4792   -5.6625    0.0000 O   0  0  0  0  0  0  0  0  0  0  0  0
    3.9167    0.3625    0.0000 N   0  0  0  0  0  0  0  0  0  0  0  0
    6.5542   -7.0875    0.0000 N   0  0  0  0  0  0  0  0  0  0  0  0
    7.1917   -4.9792    0.0000 S   0  0  0  0  0  0  0  0  0  0  0  0
    4.5042   -7.4542    0.0000 C   0  0  0  0  0  0  0  0  0  0  0  0
    2.2542   -6.2500    0.0000 O   0  0  0  0  0  0  0  0  0  0  0  0
    1.2792   -6.5375    0.0000 C   0  0  0  0  0  0  0  0  0  0  0  0
    1.3042   -8.0917    0.0000 C   0  0  0  0  0  0  0  0  0  0  0  0
    6.5542   -6.2625    0.0000 C   0  0  0  0  0  0  0  0  0  0  0  0
    7.1917   -5.8125    0.0000 C   0  0  0  0  0  0  0  0  0  0  0  0
    7.9167   -2.9000    0.0000 H   0  0  0  0  0  0  0  0  0  0  0  0
  2  1  1  1
  3  1  1  0
  4  3  2  0
  5  2  1  0
  6  5  1  0
  7  8  2  0
  8  1  1  0
  9  2  1  0
 10 15  1  0
 11 30  1  0
 12 13  1  0
 13 11  1  0
 14  9  1  0
 15 26  1  0
 16 20  1  0
 17 15  1  0
 18  4  1  0
 19  3  1  0
  6 20  1  6
 21 27  1  0
 22 25  1  0
 23 36  1  0
 14 24  1  1
 25 23  1  0
 26 28  1  0
 27 19  2  0
 28 49  1  0
 29 37  1  0
 30 24  1  0
 31 12  1  0
 32 11  2  0
 33 12  2  0
 34 16  2  0
 35 10  2  0
 36 31  1  0
 37 50  1  0
 38 22  2  0
 39 29  2  0
 40 28  2  0
  5 41  1  6
 42 22  1  0
 43 12  1  0
 44 11  1  0
 45 16  1  0
 46 16  1  0
 47 18  1  0
 48 29  1  0
 49 55  1  0
 50 42  1  0
 51 25  1  0
 52 23  1  0
 53 23  1  0
 54 48  1  0
 55 54  1  0
 15 56  1  6
  4  7  1  0
  6 14  1  0
 18 21  2  0
 10 17  1  0
M  END

> <chembl_id>
CHEMBL34036

> <chembl_pref_name>
None

$$$$

     RDKit          2D

 21 20  0  0  0  0  0  0  0  0999 V2000
  -10.6668   -8.5245    0.0000 C   0  0  0  0  0  0  0  0  0  0  0  0
   -9.3678   -9.2745    0.0000 C   0  0  0  0  0  0  0  0  0  0  0  0
   -8.0688   -8.5245    0.0000 C   0  0  0  0  0  0  0  0  0  0  0  0
   -6.7697   -9.2745    0.0000 C   0  0  0  0  0  0  0  0  0  0  0  0
   -9.3678  -10.7745    0.0000 N   0  0  0  0  0  0  0  0  0  0  0  0
  -10.6669   -7.0245    0.0000 O   0  0  0  0  0  0  0  0  0  0  0  0
  -11.9659   -9.2745    0.0000 O   0  0  0  0  0  0  0  0  0  0  0  0
  -13.2649   -8.5245    0.0000 C   0  0  0  0  0  0  0  0  0  0  0  0
  -14.5640   -9.2745    0.0000 C   0  0  0  0  0  0  0  0  0  0  0  0
   -5.4707   -8.5245    0.0000 C   0  0  0  0  0  0  0  0  0  0  0  0
   -4.1717   -9.2745    0.0000 N   0  0  0  0  0  0  0  0  0  0  0  0
   -5.4707   -7.0245    0.0000 O   0  0  0  0  0  0  0  0  0  0  0  0
   -2.8726   -8.5245    0.0000 C   0  0  0  0  0  0  0  0  0  0  0  0
   -1.5736   -9.2745    0.0000 C   0  0  0  0  0  0  0  0  0  0  0  0
   -0.2745   -8.5245    0.0000 S   0  0  0  0  0  0  0  0  0  0  0  0
    1.0245   -9.2745    0.0000 C   0  0  0  0  0  0  0  0  0  0  0  0
    2.3235   -8.5245    0.0000 C   0  0  0  0  0  0  0  0  0  0  0  0
    1.0245  -10.7745    0.0000 O   0  0  0  0  0  0  0  0  0  0  0  0
    3.6226   -9.2745    0.0000 C   0  0  0  0  0  0  0  0  0  0  0  0
    2.3235   -7.0245    0.0000 C   0  0  0  0  0  0  0  0  0  0  0  0
    3.6226   -7.7745    0.0000 C   0  0  0  0  0  0  0  0  0  0  0  0
  1  2  1  0
  2  3  1  0
  3  4  1  0
  2  5  1  6
  1  6  2  0
  8  9  1  0
  7  8  1  0
  1  7  1  0
 10 11  1  0
 10 12  2  0
 13 14  1  0
 16 17  1  0
 16 18  2  0
 15 16  1  0
 14 15  1  0
 11 13  1  0
  4 10  1  0
 17 19  1  0
 17 20  1  0
 17 21  1  0
M  END

> <chembl_id>
CHEMBL3765830

> <chembl_pref_name>
None

$$$$

     RDKit          2D

 70 73  0  0  1  0  0  0  0  0999 V2000
   12.8708    2.1522    0.0000 N   0  0  0  0  0  0  0  0  0  0  0  0
   11.9647    0.8056    0.0000 C   0  0  0  0  0  0  0  0  0  0  0  0
    6.8360    4.0848    0.0000 C   0  0  0  0  0  0  0  0  0  0  0  0
    7.6464    3.9227    0.0000 C   0  0  0  0  0  0  0  0  0  0  0  0
   11.9647    4.3217    0.0000 N   0  0  0  0  0  0  0  0  0  0  0  0
   11.2042    0.4939    0.0000 N   0  0  0  0  0  0  0  0  0  0  0  0
    9.0346    3.7482    0.0000 C   0  0  0  0  0  0  0  0  0  0  0  0
   12.8708    2.9876    0.0000 C   0  0  0  0  0  0  0  0  0  0  0  0
    6.2916    3.4614    0.0000 N   0  0  0  0  0  0  0  0  0  0  0  0
    9.6165    4.3217    0.0000 N   0  0  0  0  0  0  0  0  0  0  0  0
   11.2042    4.6459    0.0000 C   0  0  0  0  0  0  0  0  0  0  0  0
    8.7187    2.9876    0.0000 C   0  0  0  0  0  0  0  0  0  0  0  0
    5.4811    3.6235    0.0000 C   0  0  0  0  0  0  0  0  0  0  0  0
   12.5466    1.3916    0.0000 C   0  0  0  0  0  0  0  0  0  0  0  0
    7.9083    3.1372    0.0000 N   0  0  0  0  0  0  0  0  0  0  0  0
   12.5466    3.7482    0.0000 C   0  0  0  0  0  0  0  0  0  0  0  0
    9.6165    0.8056    0.0000 C   0  0  0  0  0  0  0  0  0  0  0  0
    9.0346    1.3916    0.0000 S   0  0  0  0  0  0  0  0  0  0  0  0
    4.9408    3.0001    0.0000 C   0  0  0  0  0  0  0  0  0  0  0  0
   10.3812    0.4939    0.0000 C   0  0  0  0  0  0  0  0  0  0  0  0
   10.3812    4.6459    0.0000 C   0  0  0  0  0  0  0  0  0  0  0  0
    4.1303    3.1621    0.0000 N   0  0  0  0  0  0  0  0  0  0  0  0
    8.7187    2.1522    0.0000 C   0  0  0  0  0  0  0  0  0  0  0  0
    3.5859    2.5512    0.0000 C   0  0  0  0  0  0  0  0  0  0  0  0
   12.4219    0.1323    0.0000 O   0  0  0  0  0  0  0  0  0  0  0  0
    8.0205    4.6833    0.0000 O   0  0  0  0  0  0  0  0  0  0  0  0
    8.3489    4.1970    0.0000 O   0  0  0  0  0  0  0  0  0  0  0  0
   13.6812    3.1372    0.0000 O   0  0  0  0  0  0  0  0  0  0  0  0
   11.3663    5.4564    0.0000 O   0  0  0  0  0  0  0  0  0  0  0  0
    5.2193    4.4090    0.0000 O   0  0  0  0  0  0  0  0  0  0  0  0
   13.2365    4.1970    0.0000 C   0  0  0  0  0  0  0  0  0  0  0  0
    9.1593    0.1323    0.0000 O   0  0  0  0  0  0  0  0  0  0  0  0
    6.5741    4.8703    0.0000 C   0  0  0  0  0  0  0  0  0  0  0  0
    3.8560    1.7657    0.0000 O   0  0  0  0  0  0  0  0  0  0  0  0
   13.2365    0.9303    0.0000 C   0  0  0  0  0  0  0  0  0  0  0  0
   10.2191   -0.3166    0.0000 C   0  0  0  0  0  0  0  0  0  0  0  0
   -0.9818    4.9077    0.0000 C   0  0  0  0  0  0  0  0  0  0  0  0
   -1.7881    5.0698    0.0000 C   0  0  0  0  0  0  0  0  0  0  0  0
    0.6308    4.5836    0.0000 C   0  0  0  0  0  0  0  0  0  0  0  0
   13.1825    5.0200    0.0000 C   0  0  0  0  0  0  0  0  0  0  0  0
   10.6680   -1.6632    0.0000 S   0  0  0  0  0  0  0  0  0  0  0  0
    5.2026    2.2270    0.0000 C   0  0  0  0  0  0  0  0  0  0  0  0
   -0.7075    4.1222    0.0000 C   0  0  0  0  0  0  0  0  0  0  0  0
   -0.4332    5.5187    0.0000 C   0  0  0  0  0  0  0  0  0  0  0  0
    0.0947    3.9601    0.0000 C   0  0  0  0  0  0  0  0  0  0  0  0
    0.3690    5.3691    0.0000 C   0  0  0  0  0  0  0  0  0  0  0  0
   -2.3284    4.4464    0.0000 C   0  0  0  0  0  0  0  0  0  0  0  0
    7.1145    5.4813    0.0000 O   0  0  0  0  0  0  0  0  0  0  0  0
    1.4371    4.4215    0.0000 O   0  0  0  0  0  0  0  0  0  0  0  0
    4.6582    1.6036    0.0000 O   0  0  0  0  0  0  0  0  0  0  0  0
    2.7754    2.7133    0.0000 C   0  0  0  0  0  0  0  0  0  0  0  0
   10.2191    5.4564    0.0000 C   0  0  0  0  0  0  0  0  0  0  0  0
   10.8384   -0.8527    0.0000 C   0  0  0  0  0  0  0  0  0  0  0  0
   13.9805    1.3043    0.0000 C   0  0  0  0  0  0  0  0  0  0  0  0
    5.7637    5.0324    0.0000 C   0  0  0  0  0  0  0  0  0  0  0  0
   11.2997   -2.2118    0.0000 C   0  0  0  0  0  0  0  0  0  0  0  0
   13.1825    0.1074    0.0000 C   0  0  0  0  0  0  0  0  0  0  0  0
    1.7031    3.6484    0.0000 C   0  0  0  0  0  0  0  0  0  0  0  0
   12.4468    5.3940    0.0000 C   0  0  0  0  0  0  0  0  0  0  0  0
   13.8682    5.4813    0.0000 C   0  0  0  0  0  0  0  0  0  0  0  0
   -3.1347    4.6085    0.0000 C   0  0  0  0  0  0  0  0  0  0  0  0
   -2.0541    3.6734    0.0000 C   0  0  0  0  0  0  0  0  0  0  0  0
    2.5094    3.4863    0.0000 C   0  0  0  0  0  0  0  0  0  0  0  0
   14.6662    0.8430    0.0000 C   0  0  0  0  0  0  0  0  0  0  0  0
   13.8184    6.3042    0.0000 C   0  0  0  0  0  0  0  0  0  0  0  0
   -3.6750    3.9851    0.0000 C   0  0  0  0  0  0  0  0  0  0  0  0
   -2.5985    3.0499    0.0000 C   0  0  0  0  0  0  0  0  0  0  0  0
   12.3845    6.2169    0.0000 C   0  0  0  0  0  0  0  0  0  0  0  0
   13.0744    6.6658    0.0000 C   0  0  0  0  0  0  0  0  0  0  0  0
   -3.4090    3.2120    0.0000 C   0  0  0  0  0  0  0  0  0  0  0  0
  2 14  1  0
  3  4  1  0
  4 15  1  0
  5 16  1  0
  6  2  1  0
  7 10  1  0
  8  1  1  0
  3  9  1  1
 10 21  1  0
 11  5  1  0
 12 23  1  0
 13  9  1  0
 14  1  1  0
 12 15  1  1
 16  8  1  0
 17 20  1  0
 18 17  1  0
 19 13  1  0
 20  6  1  0
 21 11  1  0
 19 22  1  0
 23 18  1  0
 24 22  1  0
 25  2  2  0
 26  4  2  0
 27  7  2  0
 28  8  2  0
 29 11  2  0
 30 13  2  0
 16 31  1  6
 32 17  2  0
  3 33  1  0
 34 24  2  0
 14 35  1  1
 20 36  1  1
 37 44  2  0
 38 37  1  0
 39 49  1  0
 40 31  1  0
 41 53  1  0
 19 42  1  6
 43 45  2  0
 44 46  1  0
 45 39  1  0
 46 39  2  0
 47 38  1  0
 33 48  1  1
 49 58  1  0
 50 42  1  0
 51 24  1  0
 21 52  1  6
 53 36  1  0
 54 35  1  0
 55 33  1  0
 56 41  1  0
 35 57  1  6
 58 63  1  0
 59 40  2  0
 60 40  1  0
 61 47  2  0
 62 47  1  0
 63 51  1  0
 64 54  1  0
 65 60  2  0
 66 61  1  0
 67 62  2  0
 68 59  1  0
 69 65  1  0
 70 67  1  0
 69 68  2  0
 12  7  1  0
 37 43  1  0
 70 66  2  0
M  END

> <chembl_id>
CHEMBL3085536

> <chembl_pref_name>
None

$$$$

     RDKit          2D

 62 64  0  0  0  0  0  0  0  0999 V2000
   -3.9042   -5.7625    0.0000 N   0  0  0  0  0  0  0  0  0  0  0  0
   -3.6583   -5.2667    0.0000 C   0  0  0  0  0  0  0  0  0  0  0  0
   -4.5000   -5.8750    0.0000 C   0  0  0  0  0  0  0  0  0  0  0  0
   -4.5667   -6.4083    0.0000 C   0  0  0  0  0  0  0  0  0  0  0  0
   -3.9625   -4.8042    0.0000 C   0  0  0  0  0  0  0  0  0  0  0  0
   -3.5542   -4.4042    0.0000 C   0  0  0  0  0  0  0  0  0  0  0  0
   -4.0083   -6.6292    0.0000 N   0  0  0  0  0  0  0  0  0  0  0  0
   -3.6000   -6.2292    0.0000 C   0  0  0  0  0  0  0  0  0  0  0  0
   -3.0667   -5.1583    0.0000 O   0  0  0  0  0  0  0  0  0  0  0  0
   -1.4250   -4.3500    0.0000 P   0  0  0  0  0  0  0  0  0  0  0  0
   -0.3708   -4.3500    0.0000 P   0  0  0  0  0  0  0  0  0  0  0  0
   -0.9000   -4.0833    0.0000 O   0  0  0  0  0  0  0  0  0  0  0  0
   -3.0042   -4.6208    0.0000 C   0  0  0  0  0  0  0  0  0  0  0  0
   -4.2625   -3.7083    0.0000 P   0  0  0  0  0  0  0  0  0  0  0  0
   -5.1208   -6.6292    0.0000 C   0  0  0  0  0  0  0  0  0  0  0  0
   -4.9917   -5.5583    0.0000 N   0  0  0  0  0  0  0  0  0  0  0  0
   -3.6792   -3.8792    0.0000 O   0  0  0  0  0  0  0  0  0  0  0  0
   -5.6125   -6.3125    0.0000 N   0  0  0  0  0  0  0  0  0  0  0  0
    2.2583   -4.6208    0.0000 C   0  0  0  0  0  0  0  0  0  0  0  0
    1.2083   -4.6208    0.0000 C   0  0  0  0  0  0  0  0  0  0  0  0
   -2.4792   -4.3500    0.0000 C   0  0  0  0  0  0  0  0  0  0  0  0
    1.7375   -4.8917    0.0000 C   0  0  0  0  0  0  0  0  0  0  0  0
   -5.5500   -5.7792    0.0000 C   0  0  0  0  0  0  0  0  0  0  0  0
    4.3708   -4.6208    0.0000 C   0  0  0  0  0  0  0  0  0  0  0  0
   -1.9500   -4.6208    0.0000 O   0  0  0  0  0  0  0  0  0  0  0  0
    7.0083   -4.8917    0.0000 C   0  0  0  0  0  0  0  0  0  0  0  0
    0.1542   -4.6208    0.0000 O   0  0  0  0  0  0  0  0  0  0  0  0
   -0.6750   -4.8167    0.0000 O   0  0  0  0  0  0  0  0  0  0  0  0
   -1.1208   -4.8167    0.0000 O   0  0  0  0  0  0  0  0  0  0  0  0
   -4.8375   -3.5417    0.0000 O   0  0  0  0  0  0  0  0  0  0  0  0
    0.6833   -4.3500    0.0000 C   0  0  0  0  0  0  0  0  0  0  0  0
    3.8417   -4.8917    0.0000 C   0  0  0  0  0  0  0  0  0  0  0  0
    2.2583   -4.0833    0.0000 O   0  0  0  0  0  0  0  0  0  0  0  0
    8.0583   -4.8917    0.0000 C   0  0  0  0  0  0  0  0  0  0  0  0
    4.3708   -4.0833    0.0000 O   0  0  0  0  0  0  0  0  0  0  0  0
   -4.5667   -4.7458    0.0000 O   0  0  0  0  0  0  0  0  0  0  0  0
    7.0083   -5.4292    0.0000 O   0  0  0  0  0  0  0  0  0  0  0  0
    2.7875   -4.8917    0.0000 N   0  0  0  0  0  0  0  0  0  0  0  0
   -1.7292   -3.8833    0.0000 O   0  0  0  0  0  0  0  0  0  0  0  0
   -0.0667   -3.8833    0.0000 O   0  0  0  0  0  0  0  0  0  0  0  0
   -4.0750   -3.1958    0.0000 O   0  0  0  0  0  0  0  0  0  0  0  0
   -4.4500   -4.2208    0.0000 O   0  0  0  0  0  0  0  0  0  0  0  0
    7.5292   -4.6208    0.0000 C   0  0  0  0  0  0  0  0  0  0  0  0
    8.0583   -5.4292    0.0000 C   0  0  0  0  0  0  0  0  0  0  0  0
   -5.1833   -7.1667    0.0000 N   0  0  0  0  0  0  0  0  0  0  0  0
    4.8958   -4.8917    0.0000 N   0  0  0  0  0  0  0  0  0  0  0  0
    6.4792   -4.6208    0.0000 S   0  0  0  0  0  0  0  0  0  0  0  0
    3.3125   -4.6208    0.0000 C   0  0  0  0  0  0  0  0  0  0  0  0
    1.7375   -5.4292    0.0000 O   0  0  0  0  0  0  0  0  0  0  0  0
    0.9042   -5.0875    0.0000 C   0  0  0  0  0  0  0  0  0  0  0  0
    1.5125   -4.1542    0.0000 C   0  0  0  0  0  0  0  0  0  0  0  0
    8.5833   -4.6208    0.0000 C   0  0  0  0  0  0  0  0  0  0  0  0
    5.4250   -4.6208    0.0000 C   0  0  0  0  0  0  0  0  0  0  0  0
    5.9500   -4.8917    0.0000 C   0  0  0  0  0  0  0  0  0  0  0  0
    9.1083   -4.8917    0.0000 C   0  0  0  0  0  0  0  0  0  0  0  0
   12.2708   -4.8917    0.0000 C   0  0  0  0  0  0  0  0  0  0  0  0
   11.7458   -4.6208    0.0000 C   0  0  0  0  0  0  0  0  0  0  0  0
   11.2167   -4.8917    0.0000 C   0  0  0  0  0  0  0  0  0  0  0  0
    9.6375   -4.6208    0.0000 C   0  0  0  0  0  0  0  0  0  0  0  0
   10.1625   -4.8917    0.0000 C   0  0  0  0  0  0  0  0  0  0  0  0
   10.6917   -4.6208    0.0000 C   0  0  0  0  0  0  0  0  0  0  0  0
   12.7958   -4.6208    0.0000 C   0  0  0  0  0  0  0  0  0  0  0  0
  2  1  1  0
  3  1  1  0
  4  3  2  0
  5  2  1  0
  6  5  1  0
  7  8  2  0
  8  1  1  0
  9  2  1  0
 10 25  1  0
 11 12  1  0
 12 10  1  0
 13  9  1  0
 14 17  1  0
 15  4  1  0
 16  3  1  0
 17  6  1  0
 18 15  2  0
 19 22  1  0
 20 31  1  0
 21 13  1  0
 22 20  1  0
 23 16  2  0
 24 32  1  0
 25 21  1  0
 26 47  1  0
 27 11  1  0
 28 11  2  0
 29 10  2  0
 30 14  2  0
 31 27  1  0
 32 48  1  0
 33 19  2  0
 34 43  1  0
 35 24  2  0
 36  5  1  0
 37 26  2  0
 38 19  1  0
 39 10  1  0
 40 11  1  0
 41 14  1  0
 42 14  1  0
 43 26  1  0
 44 34  2  0
 45 15  1  0
 46 24  1  0
 47 54  1  0
 48 38  1  0
 49 22  1  0
 50 20  1  0
 51 20  1  0
 52 34  1  0
 53 46  1  0
 54 53  1  0
 55 52  1  0
 56 57  1  0
 57 58  1  0
 58 61  1  0
 59 55  1  0
 60 59  1  0
 61 60  1  0
 62 56  1  0
  4  7  1  0
 23 18  1  0
 13  6  1  0
M  END

> <chembl_id>
CHEMBL2008266

> <chembl_pref_name>
None

$$$$

     RDKit          2D

 13 12  0  0  1  0  0  0  0  0999 V2000
    4.1750  -13.6667    0.0000 C   0  0  0  0  0  0  0  0  0  0  0  0
    4.8667  -14.0875    0.0000 C   0  0  0  0  0  0  0  0  0  0  0  0
    4.1875  -12.8417    0.0000 N   0  0  0  0  0  0  0  0  0  0  0  0
    4.8917  -12.4417    0.0000 C   0  0  0  0  0  0  0  0  0  0  0  0
    2.0292  -14.0375    0.0000 C   0  0  0  0  0  0  0  0  0  0  0  0
    2.7542  -13.6417    0.0000 S   0  0  0  0  0  0  0  0  0  0  0  0
    3.4292  -14.0292    0.0000 C   0  0  0  0  0  0  0  0  0  0  0  0
    4.8542  -14.9125    0.0000 O   0  0  0  0  0  0  0  0  0  0  0  0
    4.9042  -11.6167    0.0000 O   0  0  0  0  0  0  0  0  0  0  0  0
    1.3167  -13.6167    0.0000 O   0  0  0  0  0  0  0  0  0  0  0  0
    5.5875  -13.6875    0.0000 O   0  0  0  0  0  0  0  0  0  0  0  0
    5.6042  -12.8667    0.0000 C   0  0  0  0  0  0  0  0  0  0  0  0
    2.0250  -14.8625    0.0000 C   0  0  0  0  0  0  0  0  0  0  0  0
  2  1  1  0
  1  3  1  6
  4  3  1  0
  5  6  1  0
  6  7  1  0
  7  1  1  0
  8  2  2  0
  9  4  2  0
 10  5  2  0
 11  2  1  0
 12  4  1  0
 13  5  1  0
M  END

> <chembl_id>
CHEMBL2106099

> <chembl_pref_name>
DACISTEINE

$$$$

     RDKit          2D

 38 39  0  0  0  0  0  0  0  0999 V2000
   15.7833  -17.1250    0.0000 C   0  0  0  0  0  0  0  0  0  0  0  0
   17.2074  -17.1250    0.0000 N   0  0  0  0  0  0  0  0  0  0  0  0
   16.4954  -16.7083    0.0000 C   0  0  0  0  0  0  0  0  0  0  0  0
   15.0677  -16.7146    0.0000 O   0  0  0  0  0  0  0  0  0  0  0  0
   16.4954  -15.8833    0.0000 C   0  0  0  0  0  0  0  0  0  0  0  0
   15.7809  -15.4708    0.0000 C   0  0  0  0  0  0  0  0  0  0  0  0
   15.7854  -14.6448    0.0000 C   0  0  0  0  0  0  0  0  0  0  0  0
   15.0717  -14.2323    0.0000 C   0  0  0  0  0  0  0  0  0  0  0  0
   14.3563  -14.6449    0.0000 C   0  0  0  0  0  0  0  0  0  0  0  0
   14.3589  -15.4742    0.0000 C   0  0  0  0  0  0  0  0  0  0  0  0
   15.0732  -15.8828    0.0000 C   0  0  0  0  0  0  0  0  0  0  0  0
   17.9242  -16.7167    0.0000 C   0  0  0  0  0  0  0  0  0  0  0  0
   18.6363  -17.1334    0.0000 C   0  0  0  0  0  0  0  0  0  0  0  0
   17.9291  -15.8917    0.0000 O   0  0  0  0  0  0  0  0  0  0  0  0
   18.6315  -17.9584    0.0000 N   0  0  0  0  0  0  0  0  0  0  0  0
   19.3532  -16.7251    0.0000 C   0  0  0  0  0  0  0  0  0  0  0  0
   19.3580  -15.9001    0.0000 C   0  0  0  0  0  0  0  0  0  0  0  0
   20.0749  -15.4918    0.0000 C   0  0  0  0  0  0  0  0  0  0  0  0
   18.6460  -15.4834    0.0000 C   0  0  0  0  0  0  0  0  0  0  0  0
   19.3435  -18.3750    0.0000 C   0  0  0  0  0  0  0  0  0  0  0  0
   19.3387  -19.2000    0.0000 C   0  0  0  0  0  0  0  0  0  0  0  0
   20.0604  -17.9667    0.0000 O   0  0  0  0  0  0  0  0  0  0  0  0
   18.6218  -19.6083    0.0000 N   0  0  0  0  0  0  0  0  0  0  0  0
   17.9097  -19.1917    0.0000 C   0  0  0  0  0  0  0  0  0  0  0  0
   17.1929  -19.6000    0.0000 C   0  0  0  0  0  0  0  0  0  0  0  0
   17.9146  -18.3667    0.0000 O   0  0  0  0  0  0  0  0  0  0  0  0
   16.4808  -19.1833    0.0000 N   0  0  0  0  0  0  0  0  0  0  0  0
   15.7639  -19.5916    0.0000 C   0  0  0  0  0  0  0  0  0  0  0  0
   15.0519  -19.1749    0.0000 C   0  0  0  0  0  0  0  0  0  0  0  0
   15.7591  -20.4166    0.0000 O   0  0  0  0  0  0  0  0  0  0  0  0
   15.0567  -18.3499    0.0000 C   0  0  0  0  0  0  0  0  0  0  0  0
   15.7736  -17.9416    0.0000 S   0  0  0  0  0  0  0  0  0  0  0  0
   14.3350  -19.5832    0.0000 N   0  0  0  0  0  0  0  0  0  0  0  0
   13.6230  -19.1665    0.0000 C   0  0  0  0  0  0  0  0  0  0  0  0
   12.9061  -19.5748    0.0000 C   0  0  0  0  0  0  0  0  0  0  0  0
   13.6278  -18.3415    0.0000 O   0  0  0  0  0  0  0  0  0  0  0  0
   17.1880  -20.4249    0.0000 C   0  0  0  0  0  0  0  0  0  0  0  0
   17.9001  -20.8416    0.0000 O   0  0  0  0  0  0  0  0  0  0  0  0
  8  9  2  0
 17 19  1  0
 15 20  1  0
  9 10  1  0
 20 21  1  0
  3  5  1  6
 20 22  2  0
 10 11  2  0
 21 23  1  0
 11  6  1  0
 23 24  1  0
  1  3  1  0
 24 25  1  0
  2 12  1  0
 24 26  2  0
  5  6  1  0
 25 27  1  0
 12 13  1  0
 27 28  1  0
  2  3  1  0
 29 28  1  0
 12 14  2  0
 28 30  2  0
  6  7  2  0
 29 31  1  0
 13 15  1  0
 31 32  1  0
  1 32  1  0
 29 33  1  1
 13 16  1  6
 33 34  1  0
  7  8  1  0
 34 35  1  0
 16 17  1  0
 34 36  2  0
  1  4  2  0
 25 37  1  6
 17 18  1  0
 37 38  1  0
M  END

> <chembl_id>
CHEMBL1824146

> <chembl_pref_name>
None

$$$$

     RDKit          2D

 17 16  0  0  1  0  0  0  0  0999 V2000
   -0.7833   -4.6167    0.0000 C   0  0  0  0  0  0  0  0  0  0  0  0
   -0.0708   -4.2042    0.0000 C   0  0  0  0  0  0  0  0  0  0  0  0
   -1.5000   -4.2042    0.0000 N   0  0  0  0  0  0  0  0  0  0  0  0
   -2.2125   -4.6167    0.0000 C   0  0  0  0  0  0  0  0  0  0  0  0
    3.5000   -4.6167    0.0000 C   0  0  0  0  0  0  0  0  0  0  0  0
   -0.0708   -3.3792    0.0000 O   0  0  0  0  0  0  0  0  0  0  0  0
   -2.9333   -4.2042    0.0000 O   0  0  0  0  0  0  0  0  0  0  0  0
    4.2167   -4.2042    0.0000 O   0  0  0  0  0  0  0  0  0  0  0  0
    0.6417   -4.6167    0.0000 N   0  0  0  0  0  0  0  0  0  0  0  0
    2.7875   -4.2042    0.0000 S   0  0  0  0  0  0  0  0  0  0  0  0
   -1.5000   -5.8542    0.0000 S   0  0  0  0  0  0  0  0  0  0  0  0
   -0.7833   -5.4417    0.0000 C   0  0  0  0  0  0  0  0  0  0  0  0
   -2.2125   -5.4417    0.0000 C   0  0  0  0  0  0  0  0  0  0  0  0
    3.5000   -5.4417    0.0000 C   0  0  0  0  0  0  0  0  0  0  0  0
    1.3542   -4.2042    0.0000 C   0  0  0  0  0  0  0  0  0  0  0  0
    2.0667   -4.6167    0.0000 C   0  0  0  0  0  0  0  0  0  0  0  0
   -1.5000   -5.0250    0.0000 H   0  0  0  0  0  0  0  0  0  0  0  0
  2  1  1  0
  1  3  1  6
  4  3  1  0
  5 10  1  0
  6  2  2  0
  7  4  2  0
  8  5  2  0
  9  2  1  0
 10 16  1  0
 11 12  1  0
 12  1  1  0
 13  4  1  0
 14  5  1  0
 15  9  1  0
 16 15  1  0
  1 17  1  1
M  END

> <chembl_id>
CHEMBL18837

> <chembl_pref_name>
None

$$$$

     RDKit          2D

 72 75  0  0  1  0  0  0  0  0999 V2000
   13.4500   -5.1000    0.0000 N   0  0  0  0  0  0  0  0  0  0  0  0
   12.5417   -6.4500    0.0000 C   0  0  0  0  0  0  0  0  0  0  0  0
    7.4042   -3.1667    0.0000 C   0  0  0  0  0  0  0  0  0  0  0  0
    8.2125   -3.3292    0.0000 C   0  0  0  0  0  0  0  0  0  0  0  0
   12.5417   -2.9250    0.0000 N   0  0  0  0  0  0  0  0  0  0  0  0
   11.7792   -6.7625    0.0000 N   0  0  0  0  0  0  0  0  0  0  0  0
    9.6042   -3.5042    0.0000 C   0  0  0  0  0  0  0  0  0  0  0  0
   13.4500   -4.2667    0.0000 C   0  0  0  0  0  0  0  0  0  0  0  0
    6.8542   -3.7875    0.0000 N   0  0  0  0  0  0  0  0  0  0  0  0
   10.1917   -2.9250    0.0000 N   0  0  0  0  0  0  0  0  0  0  0  0
   11.7792   -2.6042    0.0000 C   0  0  0  0  0  0  0  0  0  0  0  0
    9.2917   -4.2667    0.0000 C   0  0  0  0  0  0  0  0  0  0  0  0
    6.0417   -3.6250    0.0000 C   0  0  0  0  0  0  0  0  0  0  0  0
   13.1292   -5.8625    0.0000 C   0  0  0  0  0  0  0  0  0  0  0  0
    8.4792   -4.1125    0.0000 N   0  0  0  0  0  0  0  0  0  0  0  0
   13.1292   -3.5042    0.0000 C   0  0  0  0  0  0  0  0  0  0  0  0
   10.1917   -6.4500    0.0000 C   0  0  0  0  0  0  0  0  0  0  0  0
    9.6042   -5.8625    0.0000 S   0  0  0  0  0  0  0  0  0  0  0  0
    5.5000   -4.2500    0.0000 C   0  0  0  0  0  0  0  0  0  0  0  0
   10.9542   -6.7625    0.0000 C   0  0  0  0  0  0  0  0  0  0  0  0
   10.9542   -2.6042    0.0000 C   0  0  0  0  0  0  0  0  0  0  0  0
    4.6875   -4.0875    0.0000 N   0  0  0  0  0  0  0  0  0  0  0  0
   -1.2458   -2.1792    0.0000 C   0  0  0  0  0  0  0  0  0  0  0  0
    9.2917   -5.1000    0.0000 C   0  0  0  0  0  0  0  0  0  0  0  0
    4.1417   -4.7042    0.0000 C   0  0  0  0  0  0  0  0  0  0  0  0
   -0.4333   -2.3417    0.0000 C   0  0  0  0  0  0  0  0  0  0  0  0
   13.0042   -7.1292    0.0000 O   0  0  0  0  0  0  0  0  0  0  0  0
    8.5875   -2.5667    0.0000 O   0  0  0  0  0  0  0  0  0  0  0  0
    8.9167   -3.0500    0.0000 O   0  0  0  0  0  0  0  0  0  0  0  0
   14.2625   -4.1125    0.0000 O   0  0  0  0  0  0  0  0  0  0  0  0
   11.9417   -1.7917    0.0000 O   0  0  0  0  0  0  0  0  0  0  0  0
    5.7792   -2.8417    0.0000 O   0  0  0  0  0  0  0  0  0  0  0  0
   13.8167   -3.0500    0.0000 C   0  0  0  0  0  0  0  0  0  0  0  0
    9.7292   -7.1292    0.0000 O   0  0  0  0  0  0  0  0  0  0  0  0
   -1.5083   -1.4042    0.0000 O   0  0  0  0  0  0  0  0  0  0  0  0
    7.1375   -2.3792    0.0000 C   0  0  0  0  0  0  0  0  0  0  0  0
   -1.7833   -2.8042    0.0000 C   0  0  0  0  0  0  0  0  0  0  0  0
    4.4125   -5.4917    0.0000 O   0  0  0  0  0  0  0  0  0  0  0  0
   -0.1625   -3.1292    0.0000 C   0  0  0  0  0  0  0  0  0  0  0  0
    0.1125   -1.7250    0.0000 C   0  0  0  0  0  0  0  0  0  0  0  0
   13.8167   -6.3250    0.0000 C   0  0  0  0  0  0  0  0  0  0  0  0
   10.7917   -7.5750    0.0000 C   0  0  0  0  0  0  0  0  0  0  0  0
    1.1792   -2.6625    0.0000 C   0  0  0  0  0  0  0  0  0  0  0  0
   13.7667   -2.2250    0.0000 C   0  0  0  0  0  0  0  0  0  0  0  0
    0.6417   -3.2875    0.0000 C   0  0  0  0  0  0  0  0  0  0  0  0
    0.9167   -1.8792    0.0000 C   0  0  0  0  0  0  0  0  0  0  0  0
   11.2542   -8.9292    0.0000 S   0  0  0  0  0  0  0  0  0  0  0  0
    5.7667   -5.0292    0.0000 C   0  0  0  0  0  0  0  0  0  0  0  0
    7.6792   -1.7625    0.0000 O   0  0  0  0  0  0  0  0  0  0  0  0
    1.9917   -2.8250    0.0000 O   0  0  0  0  0  0  0  0  0  0  0  0
    5.2167   -5.6542    0.0000 O   0  0  0  0  0  0  0  0  0  0  0  0
    3.3292   -4.5417    0.0000 C   0  0  0  0  0  0  0  0  0  0  0  0
   10.7917   -1.7917    0.0000 C   0  0  0  0  0  0  0  0  0  0  0  0
   11.4167   -8.1167    0.0000 C   0  0  0  0  0  0  0  0  0  0  0  0
   -1.5125   -3.5792    0.0000 C   0  0  0  0  0  0  0  0  0  0  0  0
   -2.5958   -2.6417    0.0000 C   0  0  0  0  0  0  0  0  0  0  0  0
   14.5625   -5.9542    0.0000 C   0  0  0  0  0  0  0  0  0  0  0  0
    6.3250   -2.2167    0.0000 C   0  0  0  0  0  0  0  0  0  0  0  0
   11.8792   -9.4792    0.0000 C   0  0  0  0  0  0  0  0  0  0  0  0
   13.7667   -7.1500    0.0000 C   0  0  0  0  0  0  0  0  0  0  0  0
    2.2542   -3.6042    0.0000 C   0  0  0  0  0  0  0  0  0  0  0  0
   14.4542   -1.7625    0.0000 C   0  0  0  0  0  0  0  0  0  0  0  0
   13.0250   -1.8542    0.0000 C   0  0  0  0  0  0  0  0  0  0  0  0
    3.0667   -3.7667    0.0000 C   0  0  0  0  0  0  0  0  0  0  0  0
   15.2500   -6.4167    0.0000 C   0  0  0  0  0  0  0  0  0  0  0  0
   -3.1333   -3.2625    0.0000 C   0  0  0  0  0  0  0  0  0  0  0  0
   -2.0583   -4.2042    0.0000 C   0  0  0  0  0  0  0  0  0  0  0  0
   12.9667   -1.0292    0.0000 C   0  0  0  0  0  0  0  0  0  0  0  0
   14.4000   -0.9375    0.0000 C   0  0  0  0  0  0  0  0  0  0  0  0
   -2.8708   -4.0417    0.0000 C   0  0  0  0  0  0  0  0  0  0  0  0
   13.6542   -0.5750    0.0000 C   0  0  0  0  0  0  0  0  0  0  0  0
   14.0874   -5.5764    0.0000 H   0  0  0  0  0  0  0  0  0  0  0  0
  2 14  1  0
  3  4  1  0
  4 15  1  0
  5 16  1  0
  6  2  1  0
  7 10  1  0
  8  1  1  0
  3  9  1  1
 10 21  1  0
 11  5  1  0
 12 24  1  0
 13  9  1  0
 14  1  1  0
 12 15  1  1
 16  8  1  0
 17 20  1  0
 18 17  1  0
 19 13  1  0
 20  6  1  0
 21 11  1  0
 19 22  1  6
 23 26  1  0
 24 18  1  0
 25 22  1  0
 26 40  2  0
 27  2  2  0
 28  4  2  0
 29  7  2  0
 30  8  2  0
 31 11  2  0
 32 13  2  0
 16 33  1  6
 34 17  2  0
 35 23  2  0
  3 36  1  0
 37 23  1  0
 38 25  2  0
 39 45  2  0
 40 46  1  0
 14 41  1  0
 20 42  1  6
 43 50  1  0
 44 33  1  0
 45 43  1  0
 46 43  2  0
 47 54  1  0
 19 48  1  0
 36 49  1  1
 50 61  1  0
 51 48  1  0
 52 25  1  0
 21 53  1  6
 54 42  1  0
 55 37  1  0
 56 37  2  0
 57 41  1  0
 58 36  1  0
 59 47  1  0
 41 60  1  6
 61 64  1  0
 62 44  1  0
 63 44  2  0
 64 52  1  0
 65 57  1  0
 66 56  1  0
 67 55  2  0
 68 63  1  0
 69 62  2  0
 70 66  2  0
 71 68  2  0
 71 69  1  0
 12  7  1  0
 26 39  1  0
 70 67  1  0
 14 72  1  1
M  END

> <chembl_id>
CHEMBL412365

> <chembl_pref_name>
None

$$$$

     RDKit          2D

 29 30  0  0  1  0  0  0  0  0999 V2000
    2.8167  -10.7792    0.0000 N   0  0  0  0  0  0  0  0  0  0  0  0
    2.4333  -10.2500    0.0000 C   0  0  0  0  0  0  0  0  0  0  0  0
    2.4208  -11.3042    0.0000 C   0  0  0  0  0  0  0  0  0  0  0  0
    1.8083  -10.4417    0.0000 C   0  0  0  0  0  0  0  0  0  0  0  0
    1.8042  -11.0958    0.0000 C   0  0  0  0  0  0  0  0  0  0  0  0
    3.3750  -10.4458    0.0000 C   0  0  0  0  0  0  0  0  0  0  0  0
    6.2000  -10.7625    0.0000 C   0  0  0  0  0  0  0  0  0  0  0  0
    3.9458  -10.7667    0.0000 O   0  0  0  0  0  0  0  0  0  0  0  0
    5.6375  -10.4375    0.0000 N   0  0  0  0  0  0  0  0  0  0  0  0
    6.7667  -10.4417    0.0000 C   0  0  0  0  0  0  0  0  0  0  0  0
    4.5042  -10.4375    0.0000 C   0  0  0  0  0  0  0  0  0  0  0  0
    2.4333   -9.6000    0.0000 O   0  0  0  0  0  0  0  0  0  0  0  0
    2.4208  -11.9583    0.0000 O   0  0  0  0  0  0  0  0  0  0  0  0
    6.2000  -11.4208    0.0000 O   0  0  0  0  0  0  0  0  0  0  0  0
    7.3375  -10.7667    0.0000 C   0  0  0  0  0  0  0  0  0  0  0  0
    4.5042   -9.7792    0.0000 O   0  0  0  0  0  0  0  0  0  0  0  0
    5.0708  -10.7625    0.0000 C   0  0  0  0  0  0  0  0  0  0  0  0
    7.8958  -10.4417    0.0000 C   0  0  0  0  0  0  0  0  0  0  0  0
    6.7667   -9.7875    0.0000 C   0  0  0  0  0  0  0  0  0  0  0  0
    7.3375   -9.4583    0.0000 C   0  0  0  0  0  0  0  0  0  0  0  0
    7.8958   -9.7875    0.0000 C   0  0  0  0  0  0  0  0  0  0  0  0
    8.4583  -10.7625    0.0000 I   0  0  0  0  0  0  0  0  0  0  0  0
    1.2417  -10.1125    0.0000 S   0  0  0  0  0  0  0  0  0  0  0  0
   -0.6000  -10.4667    0.0000 N   0  0  0  0  0  0  0  0  0  0  0  0
    0.0120  -10.1125    0.0000 C   0  0  0  0  0  0  0  0  0  0  0  0
    0.6282  -10.4667    0.0000 C   0  0  0  0  0  0  0  0  0  0  0  0
    0.6282  -11.1750    0.0000 O   0  0  0  0  0  0  0  0  0  0  0  0
    0.0120   -9.4042    0.0000 C   0  0  0  0  0  0  0  0  0  0  0  0
    0.6282   -9.0500    0.0000 S   0  0  0  0  0  0  0  0  0  0  0  0
  8  6  1  0
  9 17  1  0
 10  7  1  0
 11  8  1  0
 12  2  2  0
 13  3  2  0
 14  7  2  0
 15 10  2  0
 16 11  2  0
 17 11  1  0
 18 15  1  0
 19 10  1  0
 20 19  2  0
 21 20  1  0
 22 18  1  0
  4  5  1  0
 18 21  2  0
  4 23  1  0
  2  1  1  0
  3  1  1  0
  4  2  1  0
  5  3  1  0
  6  1  1  0
  7  9  1  0
 24 25  1  0
 25 26  1  0
 26 27  2  0
 25 28  1  1
 28 29  1  0
 26 23  1  0
M  ISO  1  22 125
M  END

> <chembl_id>
CHEMBL435533

> <chembl_pref_name>
None

$$$$

     RDKit          2D

 14 12  0  0  0  0  0  0  0  0999 V2000
    4.5125   -8.9667    0.0000 Br  0  0  0  0  0  0  0  0  0  0  0  0
    6.4292   -3.4750    0.0000 C   0  0  0  0  0  0  0  0  0  0  0  0
    7.8625   -6.7750    0.0000 C   0  0  0  0  0  0  0  0  0  0  0  0
    3.5750   -3.4750    0.0000 N   0  0  0  0  0  0  0  0  0  0  0  0
    7.1500   -3.0625    0.0000 O   0  0  0  0  0  0  0  0  0  0  0  0
    7.1500   -7.1875    0.0000 O   0  0  0  0  0  0  0  0  0  0  0  0
    6.4292   -4.3000    0.0000 N   0  0  0  0  0  0  0  0  0  0  0  0
    7.8625   -5.9500    0.0000 S   0  0  0  0  0  0  0  0  0  0  0  0
    4.2917   -3.0625    0.0000 C   0  0  0  0  0  0  0  0  0  0  0  0
    5.7167   -3.0625    0.0000 C   0  0  0  0  0  0  0  0  0  0  0  0
    8.5792   -7.1875    0.0000 C   0  0  0  0  0  0  0  0  0  0  0  0
    7.1500   -4.7125    0.0000 C   0  0  0  0  0  0  0  0  0  0  0  0
    7.1500   -5.5375    0.0000 C   0  0  0  0  0  0  0  0  0  0  0  0
    5.0042   -3.4750    0.0000 C   0  0  0  0  0  0  0  0  0  0  0  0
  3  8  1  0
  4  9  1  0
  5  2  2  0
  6  3  2  0
  7  2  1  0
  8 13  1  0
  9 14  1  0
 10  2  1  0
 11  3  1  0
 12  7  1  0
 13 12  1  0
 14 10  1  0
M  END

> <chembl_id>
CHEMBL70979

> <chembl_pref_name>
None

$$$$

     RDKit          2D

 66 65  0  0  1  0  0  0  0  0999 V2000
    5.3792   -0.3792    0.0000 C   0  0  0  0  0  0  0  0  0  0  0  0
    3.9542   -0.3792    0.0000 N   0  0  0  0  0  0  0  0  0  0  0  0
    3.2500   -0.7917    0.0000 C   0  0  0  0  0  0  0  0  0  0  0  0
    7.5250   -0.8000    0.0000 C   0  0  0  0  0  0  0  0  0  0  0  0
    1.1042   -0.4000    0.0000 C   0  0  0  0  0  0  0  0  0  0  0  0
    9.6667   -0.3875    0.0000 C   0  0  0  0  0  0  0  0  0  0  0  0
   -1.0375   -0.8167    0.0000 C   0  0  0  0  0  0  0  0  0  0  0  0
    6.0917   -0.7917    0.0000 N   0  0  0  0  0  0  0  0  0  0  0  0
    8.2417   -0.3875    0.0000 N   0  0  0  0  0  0  0  0  0  0  0  0
    1.8167   -0.8042    0.0000 N   0  0  0  0  0  0  0  0  0  0  0  0
    4.6667   -0.7917    0.0000 C   0  0  0  0  0  0  0  0  0  0  0  0
   -0.3250   -0.4042    0.0000 N   0  0  0  0  0  0  0  0  0  0  0  0
    6.8125   -0.3792    0.0000 C   0  0  0  0  0  0  0  0  0  0  0  0
   10.3792   -0.8000    0.0000 N   0  0  0  0  0  0  0  0  0  0  0  0
    6.8167    0.4458    0.0000 C   0  0  0  0  0  0  0  0  0  0  0  0
   -3.1833   -0.4167    0.0000 C   0  0  0  0  0  0  0  0  0  0  0  0
    2.5292   -0.3917    0.0000 C   0  0  0  0  0  0  0  0  0  0  0  0
    0.3917   -0.8125    0.0000 C   0  0  0  0  0  0  0  0  0  0  0  0
    8.9542   -0.8000    0.0000 C   0  0  0  0  0  0  0  0  0  0  0  0
   -2.4708   -0.8292    0.0000 N   0  0  0  0  0  0  0  0  0  0  0  0
   11.8042   -0.7875    0.0000 C   0  0  0  0  0  0  0  0  0  0  0  0
    7.5292    0.8500    0.0000 C   0  0  0  0  0  0  0  0  0  0  0  0
   -1.7583   -0.4125    0.0000 C   0  0  0  0  0  0  0  0  0  0  0  0
   -3.8958   -0.8375    0.0000 C   0  0  0  0  0  0  0  0  0  0  0  0
   11.0917   -0.3792    0.0000 C   0  0  0  0  0  0  0  0  0  0  0  0
   -1.0500    1.6583    0.0000 C   0  0  0  0  0  0  0  0  0  0  0  0
   15.3750   -0.3417    0.0000 C   0  0  0  0  0  0  0  0  0  0  0  0
    5.3875    0.4458    0.0000 O   0  0  0  0  0  0  0  0  0  0  0  0
    3.2542   -1.6167    0.0000 O   0  0  0  0  0  0  0  0  0  0  0  0
    7.5250   -1.6250    0.0000 O   0  0  0  0  0  0  0  0  0  0  0  0
    1.1000    0.4250    0.0000 O   0  0  0  0  0  0  0  0  0  0  0  0
    9.6667    0.4375    0.0000 O   0  0  0  0  0  0  0  0  0  0  0  0
   -1.0333   -1.6417    0.0000 O   0  0  0  0  0  0  0  0  0  0  0  0
   -3.1875    0.4083    0.0000 O   0  0  0  0  0  0  0  0  0  0  0  0
   11.8125   -1.6125    0.0000 O   0  0  0  0  0  0  0  0  0  0  0  0
    0.3917   -1.6375    0.0000 C   0  0  0  0  0  0  0  0  0  0  0  0
    2.5250    0.4333    0.0000 C   0  0  0  0  0  0  0  0  0  0  0  0
    8.9500   -1.6250    0.0000 C   0  0  0  0  0  0  0  0  0  0  0  0
    8.2417    0.4375    0.0000 O   0  0  0  0  0  0  0  0  0  0  0  0
   -1.7708    2.0625    0.0000 O   0  0  0  0  0  0  0  0  0  0  0  0
   15.3667    0.4833    0.0000 O   0  0  0  0  0  0  0  0  0  0  0  0
   -1.7583    0.4125    0.0000 C   0  0  0  0  0  0  0  0  0  0  0  0
   12.5167   -0.3667    0.0000 S   0  0  0  0  0  0  0  0  0  0  0  0
   14.6667   -0.7625    0.0000 N   0  0  0  0  0  0  0  0  0  0  0  0
    4.6667   -1.6167    0.0000 C   0  0  0  0  0  0  0  0  0  0  0  0
   -1.0458    0.8333    0.0000 C   0  0  0  0  0  0  0  0  0  0  0  0
   -0.3375    2.0708    0.0000 N   0  0  0  0  0  0  0  0  0  0  0  0
    7.5292    1.6750    0.0000 O   0  0  0  0  0  0  0  0  0  0  0  0
   -4.6083   -0.4292    0.0000 C   0  0  0  0  0  0  0  0  0  0  0  0
   -4.6125    0.3958    0.0000 O   0  0  0  0  0  0  0  0  0  0  0  0
    3.2375    0.8583    0.0000 C   0  0  0  0  0  0  0  0  0  0  0  0
    1.1125   -2.0500    0.0000 C   0  0  0  0  0  0  0  0  0  0  0  0
    9.6667   -2.0375    0.0000 C   0  0  0  0  0  0  0  0  0  0  0  0
   16.0917   -0.7500    0.0000 C   0  0  0  0  0  0  0  0  0  0  0  0
   11.0792    0.4458    0.0000 C   0  0  0  0  0  0  0  0  0  0  0  0
   13.2375   -0.7750    0.0000 C   0  0  0  0  0  0  0  0  0  0  0  0
   13.9417   -0.3542    0.0000 C   0  0  0  0  0  0  0  0  0  0  0  0
    3.9500   -2.0250    0.0000 C   0  0  0  0  0  0  0  0  0  0  0  0
    5.3792   -2.0292    0.0000 C   0  0  0  0  0  0  0  0  0  0  0  0
   -5.3208   -0.8417    0.0000 C   0  0  0  0  0  0  0  0  0  0  0  0
    3.2292    1.6833    0.0000 C   0  0  0  0  0  0  0  0  0  0  0  0
    3.9542    0.4458    0.0000 C   0  0  0  0  0  0  0  0  0  0  0  0
    1.8250   -1.6292    0.0000 C   0  0  0  0  0  0  0  0  0  0  0  0
    1.1167   -2.8750    0.0000 C   0  0  0  0  0  0  0  0  0  0  0  0
    9.6667   -2.8625    0.0000 C   0  0  0  0  0  0  0  0  0  0  0  0
   10.3792   -1.6250    0.0000 C   0  0  0  0  0  0  0  0  0  0  0  0
  2 11  1  0
  3  2  1  0
  4 13  1  0
  5 10  1  0
  6 19  1  0
  7 12  1  0
  8  1  1  0
  9  4  1  0
 10 17  1  0
 11  1  1  0
 12 18  1  0
 13  8  1  0
 14  6  1  0
 13 15  1  1
 16 20  1  0
 17  3  1  0
 18  5  1  0
 19  9  1  0
 20 23  1  0
 21 25  1  0
 22 15  1  0
 23  7  1  0
 24 16  1  0
 25 14  1  0
 26 46  1  0
 27 44  1  0
 28  1  2  0
 29  3  2  0
 30  4  2  0
 31  5  2  0
 32  6  2  0
 33  7  2  0
 34 16  2  0
 35 21  2  0
 18 36  1  6
 17 37  1  6
 19 38  1  1
 39 22  2  0
 40 26  2  0
 41 27  2  0
 23 42  1  1
 43 21  1  0
 44 57  1  0
 11 45  1  6
 46 42  1  0
 47 26  1  0
 48 22  1  0
 49 24  1  0
 49 50  1  1
 51 37  1  0
 52 36  1  0
 53 38  1  0
 54 27  1  0
 25 55  1  1
 56 43  1  0
 57 56  1  0
 58 45  1  0
 59 45  1  0
 60 49  1  0
 61 51  1  0
 62 51  1  0
 63 52  1  0
 64 52  1  0
 65 53  1  0
 66 53  1  0
M  END

> <chembl_id>
CHEMBL192445

> <chembl_pref_name>
None

$$$$

     RDKit          2D

 24 26  0  0  0  0  0  0  0  0999 V2000
   18.2563   -9.8422    0.0000 N   0  0  0  0  0  0  0  0  0  0  0  0
   17.4403   -9.8547    0.0000 C   0  0  0  0  0  0  0  0  0  0  0  0
   18.2647   -9.0303    0.0000 C   0  0  0  0  0  0  0  0  0  0  0  0
   17.4403   -9.0303    0.0000 C   0  0  0  0  0  0  0  0  0  0  0  0
   18.9640  -10.2668    0.0000 C   0  0  0  0  0  0  0  0  0  0  0  0
   18.9765   -8.6182    0.0000 S   0  0  0  0  0  0  0  0  0  0  0  0
   19.6801   -9.8547    0.0000 C   0  0  0  0  0  0  0  0  0  0  0  0
   16.7201   -8.6139    0.0000 N   0  0  0  0  0  0  0  0  0  0  0  0
   18.9558  -11.0870    0.0000 C   0  0  0  0  0  0  0  0  0  0  0  0
   16.0081   -9.0261    0.0000 C   0  0  0  0  0  0  0  0  0  0  0  0
   15.2961   -8.6057    0.0000 C   0  0  0  0  0  0  0  0  0  0  0  0
   14.5717   -9.0136    0.0000 C   0  0  0  0  0  0  0  0  0  0  0  0
   19.6885   -9.0386    0.0000 C   0  0  0  0  0  0  0  0  0  0  0  0
   16.8532  -10.4376    0.0000 O   0  0  0  0  0  0  0  0  0  0  0  0
   13.9098   -8.5307    0.0000 S   0  0  0  0  0  0  0  0  0  0  0  0
   20.3879  -10.2793    0.0000 C   0  0  0  0  0  0  0  0  0  0  0  0
   13.2353   -9.0136    0.0000 C   0  0  0  0  0  0  0  0  0  0  0  0
   19.6676  -11.5033    0.0000 O   0  0  0  0  0  0  0  0  0  0  0  0
   14.3220   -9.8005    0.0000 C   0  0  0  0  0  0  0  0  0  0  0  0
   15.9914   -9.8422    0.0000 O   0  0  0  0  0  0  0  0  0  0  0  0
   13.4976   -9.8005    0.0000 C   0  0  0  0  0  0  0  0  0  0  0  0
   18.2396  -11.4909    0.0000 O   0  0  0  0  0  0  0  0  0  0  0  0
   18.2563   -8.2143    0.0000 H   0  0  0  0  0  0  0  0  0  0  0  0
   20.4071   -8.6333    0.0000 O   0  0  0  0  0  0  0  0  0  0  0  0
  2  1  1  0
  3  1  1  0
  4  3  1  0
  5  1  1  0
  6  3  1  0
  7  5  2  0
  4  8  1  1
  9  5  1  0
 10  8  1  0
 11 10  1  0
 12 11  1  0
 13  7  1  0
 14  2  2  0
 15 12  1  0
 16  7  1  0
 17 15  1  0
 18  9  2  0
 19 12  2  0
 20 10  2  0
 21 19  1  0
 22  9  1  0
  3 23  1  6
  4  2  1  0
 13  6  1  0
 17 21  2  0
 13 24  2  0
M  END

> <chembl_id>
CHEMBL3230172

> <chembl_pref_name>
None

$$$$

     RDKit          2D

 20 19  0  0  0  0  0  0  0  0999 V2000
   -7.2452   -3.0000    0.0000 C   0  0  0  0  0  0  0  0  0  0  0  0
   -8.5442   -2.2500    0.0000 C   0  0  0  0  0  0  0  0  0  0  0  0
   -9.8433   -3.0000    0.0000 C   0  0  0  0  0  0  0  0  0  0  0  0
  -11.1423   -2.2500    0.0000 C   0  0  0  0  0  0  0  0  0  0  0  0
   -8.5442   -0.7500    0.0000 N   0  0  0  0  0  0  0  0  0  0  0  0
   -7.2452   -4.5000    0.0000 O   0  0  0  0  0  0  0  0  0  0  0  0
   -5.9462   -2.2500    0.0000 O   0  0  0  0  0  0  0  0  0  0  0  0
   -4.6471   -3.0000    0.0000 C   0  0  0  0  0  0  0  0  0  0  0  0
   -3.3481   -2.2500    0.0000 C   0  0  0  0  0  0  0  0  0  0  0  0
  -12.4413   -3.0000    0.0000 C   0  0  0  0  0  0  0  0  0  0  0  0
  -13.7404   -2.2500    0.0000 N   0  0  0  0  0  0  0  0  0  0  0  0
  -12.4413   -4.5000    0.0000 O   0  0  0  0  0  0  0  0  0  0  0  0
  -15.0394   -3.0000    0.0000 C   0  0  0  0  0  0  0  0  0  0  0  0
  -16.3385   -2.2500    0.0000 C   0  0  0  0  0  0  0  0  0  0  0  0
  -17.6375   -3.0000    0.0000 S   0  0  0  0  0  0  0  0  0  0  0  0
  -18.9365   -2.2500    0.0000 C   0  0  0  0  0  0  0  0  0  0  0  0
  -20.2356   -3.0001    0.0000 O   0  0  0  0  0  0  0  0  0  0  0  0
  -18.9365   -0.7500    0.0000 C   0  0  0  0  0  0  0  0  0  0  0  0
   -2.0490   -3.0000    0.0000 C   0  0  0  0  0  0  0  0  0  0  0  0
   -0.7500   -2.2500    0.0000 C   0  0  0  0  0  0  0  0  0  0  0  0
  1  2  1  0
  2  3  1  0
  3  4  1  0
  2  5  1  6
  1  6  2  0
  8  9  1  0
  7  8  1  0
  1  7  1  0
 10 11  1  0
 10 12  2  0
 13 14  1  0
 16 17  2  0
 16 18  1  0
 15 16  1  0
 14 15  1  0
 11 13  1  0
  4 10  1  0
  9 19  1  0
 19 20  1  0
M  END

> <chembl_id>
CHEMBL3765941

> <chembl_pref_name>
None

$$$$

     RDKit          2D

 41 42  0  0  0  0  0  0  0  0999 V2000
   14.7833  -25.0625    0.0000 C   0  0  0  0  0  0  0  0  0  0  0  0
   16.2074  -25.0625    0.0000 N   0  0  0  0  0  0  0  0  0  0  0  0
   15.4954  -24.6458    0.0000 C   0  0  0  0  0  0  0  0  0  0  0  0
   14.0677  -24.6521    0.0000 O   0  0  0  0  0  0  0  0  0  0  0  0
   15.4954  -23.8208    0.0000 C   0  0  0  0  0  0  0  0  0  0  0  0
   14.7809  -23.4083    0.0000 C   0  0  0  0  0  0  0  0  0  0  0  0
   14.7854  -22.5823    0.0000 C   0  0  0  0  0  0  0  0  0  0  0  0
   14.0717  -22.1698    0.0000 C   0  0  0  0  0  0  0  0  0  0  0  0
   13.3563  -22.5824    0.0000 C   0  0  0  0  0  0  0  0  0  0  0  0
   13.3589  -23.4117    0.0000 C   0  0  0  0  0  0  0  0  0  0  0  0
   14.0732  -23.8203    0.0000 C   0  0  0  0  0  0  0  0  0  0  0  0
   16.9242  -24.6542    0.0000 C   0  0  0  0  0  0  0  0  0  0  0  0
   17.6363  -25.0709    0.0000 C   0  0  0  0  0  0  0  0  0  0  0  0
   16.9291  -23.8292    0.0000 O   0  0  0  0  0  0  0  0  0  0  0  0
   17.6315  -25.8959    0.0000 N   0  0  0  0  0  0  0  0  0  0  0  0
   18.3532  -24.6626    0.0000 C   0  0  0  0  0  0  0  0  0  0  0  0
   18.3580  -23.8376    0.0000 C   0  0  0  0  0  0  0  0  0  0  0  0
   19.0749  -23.4293    0.0000 C   0  0  0  0  0  0  0  0  0  0  0  0
   17.6460  -23.4209    0.0000 C   0  0  0  0  0  0  0  0  0  0  0  0
   18.3435  -26.3125    0.0000 C   0  0  0  0  0  0  0  0  0  0  0  0
   18.3387  -27.1375    0.0000 C   0  0  0  0  0  0  0  0  0  0  0  0
   19.0604  -25.9042    0.0000 O   0  0  0  0  0  0  0  0  0  0  0  0
   17.6218  -27.5458    0.0000 N   0  0  0  0  0  0  0  0  0  0  0  0
   19.0507  -27.5542    0.0000 C   0  0  0  0  0  0  0  0  0  0  0  0
   19.7676  -27.1459    0.0000 O   0  0  0  0  0  0  0  0  0  0  0  0
   16.9097  -27.1292    0.0000 C   0  0  0  0  0  0  0  0  0  0  0  0
   16.1929  -27.5375    0.0000 C   0  0  0  0  0  0  0  0  0  0  0  0
   16.9146  -26.3042    0.0000 O   0  0  0  0  0  0  0  0  0  0  0  0
   15.4808  -27.1208    0.0000 N   0  0  0  0  0  0  0  0  0  0  0  0
   16.1880  -28.3624    0.0000 C   0  0  0  0  0  0  0  0  0  0  0  0
   16.9001  -28.7791    0.0000 O   0  0  0  0  0  0  0  0  0  0  0  0
   14.7639  -27.5291    0.0000 C   0  0  0  0  0  0  0  0  0  0  0  0
   14.0519  -27.1124    0.0000 C   0  0  0  0  0  0  0  0  0  0  0  0
   14.7591  -28.3541    0.0000 O   0  0  0  0  0  0  0  0  0  0  0  0
   14.0567  -26.2874    0.0000 C   0  0  0  0  0  0  0  0  0  0  0  0
   14.7736  -25.8791    0.0000 S   0  0  0  0  0  0  0  0  0  0  0  0
   13.3350  -27.5207    0.0000 N   0  0  0  0  0  0  0  0  0  0  0  0
   12.6230  -27.1040    0.0000 C   0  0  0  0  0  0  0  0  0  0  0  0
   11.9061  -27.5123    0.0000 C   0  0  0  0  0  0  0  0  0  0  0  0
   12.6278  -26.2790    0.0000 O   0  0  0  0  0  0  0  0  0  0  0  0
   17.6169  -28.3708    0.0000 C   0  0  0  0  0  0  0  0  0  0  0  0
 15 20  1  0
  9 10  1  0
 20 21  1  0
  3  5  1  6
 20 22  2  0
 10 11  2  0
 21 23  1  0
 11  6  1  0
 21 24  1  6
  1  3  1  0
 24 25  1  0
  2 12  1  0
 23 26  1  0
  5  6  1  0
 26 27  1  0
 12 13  1  0
 26 28  2  0
  2  3  1  0
 27 29  1  0
 12 14  2  0
 27 30  1  6
  6  7  2  0
 30 31  1  0
 13 15  1  0
 29 32  1  0
  1 36  1  0
 33 32  1  0
 13 16  1  6
 32 34  2  0
  7  8  1  0
 33 35  1  0
 16 17  1  0
 35 36  1  0
  1  4  2  0
 33 37  1  1
 17 18  1  0
 37 38  1  0
  8  9  2  0
 38 39  1  0
 17 19  1  0
 38 40  2  0
 23 41  1  0
M  END

> <chembl_id>
CHEMBL1824149

> <chembl_pref_name>
None

$$$$

     RDKit          2D

 15 14  0  0  1  0  0  0  0  0999 V2000
    6.8250    1.2458    0.0000 C   0  0  0  0  0  0  0  0  0  0  0  0
    7.5395    1.6583    0.0000 C   0  0  0  0  0  0  0  0  0  0  0  0
    6.1105    1.6583    0.0000 C   0  0  0  0  0  0  0  0  0  0  0  0
    7.5395    2.4833    0.0000 O   0  0  0  0  0  0  0  0  0  0  0  0
    8.2539    1.2458    0.0000 C   0  0  0  0  0  0  0  0  0  0  0  0
    8.2539    0.4208    0.0000 C   0  0  0  0  0  0  0  0  0  0  0  0
    8.9684    1.6583    0.0000 C   0  0  0  0  0  0  0  0  0  0  0  0
    9.6829    1.2458    0.0000 S   0  0  0  0  0  0  0  0  0  0  0  0
    8.9684    2.4833    0.0000 O   0  0  0  0  0  0  0  0  0  0  0  0
   10.3974    1.6583    0.0000 C   0  0  0  0  0  0  0  0  0  0  0  0
   11.1118    1.2458    0.0000 C   0  0  0  0  0  0  0  0  0  0  0  0
   11.8263    1.6583    0.0000 N   0  0  0  0  0  0  0  0  0  0  0  0
   12.5408    1.2458    0.0000 C   0  0  0  0  0  0  0  0  0  0  0  0
   13.2552    1.6583    0.0000 C   0  0  0  0  0  0  0  0  0  0  0  0
   12.5408    0.4208    0.0000 O   0  0  0  0  0  0  0  0  0  0  0  0
  7  8  1  0
  7  9  2  0
  2  5  1  0
  8 10  1  0
  1  3  1  0
 10 11  1  0
  5  6  1  1
 11 12  1  0
  1  2  1  0
 12 13  1  0
  5  7  1  0
 13 14  1  0
  2  4  1  1
 13 15  2  0
M  END

> <chembl_id>
CHEMBL244204

> <chembl_pref_name>
None

$$$$

     RDKit          2D

 37 38  0  0  1  0  0  0  0  0999 V2000
   -0.5208   -2.1167    0.0000 N   0  0  0  0  0  0  0  0  0  0  0  0
   -0.9292   -1.5417    0.0000 C   0  0  0  0  0  0  0  0  0  0  0  0
   -0.9375   -2.6875    0.0000 C   0  0  0  0  0  0  0  0  0  0  0  0
   -1.6083   -1.7500    0.0000 C   0  0  0  0  0  0  0  0  0  0  0  0
   -1.6083   -2.4583    0.0000 C   0  0  0  0  0  0  0  0  0  0  0  0
    5.6250   -2.0750    0.0000 C   0  0  0  0  0  0  0  0  0  0  0  0
    2.0458   -1.2208    0.0000 C   0  0  0  0  0  0  0  0  0  0  0  0
    3.1708   -2.0750    0.0000 N   0  0  0  0  0  0  0  0  0  0  0  0
    3.7792   -1.7125    0.0000 C   0  0  0  0  0  0  0  0  0  0  0  0
    5.0083   -1.7167    0.0000 N   0  0  0  0  0  0  0  0  0  0  0  0
    6.2375   -1.7167    0.0000 C   0  0  0  0  0  0  0  0  0  0  0  0
    2.5500   -1.7250    0.0000 C   0  0  0  0  0  0  0  0  0  0  0  0
   -0.9375   -0.8250    0.0000 O   0  0  0  0  0  0  0  0  0  0  0  0
   -0.9458   -3.3917    0.0000 O   0  0  0  0  0  0  0  0  0  0  0  0
    5.6208   -2.7833    0.0000 O   0  0  0  0  0  0  0  0  0  0  0  0
    6.8458   -2.0750    0.0000 C   0  0  0  0  0  0  0  0  0  0  0  0
    1.3375   -1.2208    0.0000 O   0  0  0  0  0  0  0  0  0  0  0  0
    3.7750   -1.0042    0.0000 O   0  0  0  0  0  0  0  0  0  0  0  0
    4.3917   -2.0708    0.0000 C   0  0  0  0  0  0  0  0  0  0  0  0
    0.0958   -1.7500    0.0000 C   0  0  0  0  0  0  0  0  0  0  0  0
    2.2292   -0.5333    0.0000 O   0  0  0  0  0  0  0  0  0  0  0  0
    7.4625   -1.7208    0.0000 C   0  0  0  0  0  0  0  0  0  0  0  0
    6.2333   -1.0125    0.0000 C   0  0  0  0  0  0  0  0  0  0  0  0
    6.8417   -0.6583    0.0000 C   0  0  0  0  0  0  0  0  0  0  0  0
    1.9417   -2.0875    0.0000 C   0  0  0  0  0  0  0  0  0  0  0  0
    7.4625   -1.0125    0.0000 C   0  0  0  0  0  0  0  0  0  0  0  0
    8.0667   -2.0750    0.0000 I   0  0  0  0  0  0  0  0  0  0  0  0
    0.7167   -2.1000    0.0000 C   0  0  0  0  0  0  0  0  0  0  0  0
    1.3250   -1.7417    0.0000 C   0  0  0  0  0  0  0  0  0  0  0  0
    3.0458   -1.2208    0.0000 H   0  0  0  0  0  0  0  0  0  0  0  0
   -2.2250   -1.3958    0.0000 S   0  0  0  0  0  0  0  0  0  0  0  0
   -4.0625   -1.7500    0.0000 N   0  0  0  0  0  0  0  0  0  0  0  0
   -3.4505   -1.3958    0.0000 C   0  0  0  0  0  0  0  0  0  0  0  0
   -2.8343   -1.7500    0.0000 C   0  0  0  0  0  0  0  0  0  0  0  0
   -2.8343   -2.4583    0.0000 O   0  0  0  0  0  0  0  0  0  0  0  0
   -3.4505   -0.6875    0.0000 C   0  0  0  0  0  0  0  0  0  0  0  0
   -2.8343   -0.3333    0.0000 S   0  0  0  0  0  0  0  0  0  0  0  0
  8 12  1  0
  9  8  1  0
 10 19  1  0
 11  6  1  0
 12 25  1  0
 13  2  2  0
 14  3  2  0
 15  6  2  0
 16 11  2  0
 17  7  2  0
 18  9  2  0
 19  9  1  0
 20  1  1  0
 21  7  1  0
 22 16  1  0
 23 11  1  0
 24 23  2  0
 25 29  1  0
 26 24  1  0
 27 22  1  0
 28 20  1  0
 29 28  1  0
 12 30  1  6
  4  5  1  0
 22 26  2  0
  4 31  1  0
  2  1  1  0
  3  1  1  0
  4  2  1  0
  5  3  1  0
  6 10  1  0
 12  7  1  1
 32 33  1  0
 33 34  1  0
 34 35  2  0
 33 36  1  1
 36 37  1  0
 34 31  1  0
M  END

> <chembl_id>
CHEMBL1909037

> <chembl_pref_name>
None

$$$$

     RDKit          2D

 15 14  0  0  0  0  0  0  0  0999 V2000
   -4.0625    1.3750    0.0000 C   0  0  0  0  0  0  0  0  0  0  0  0
   -3.3480    1.7875    0.0000 C   0  0  0  0  0  0  0  0  0  0  0  0
   -4.7770    1.7875    0.0000 C   0  0  0  0  0  0  0  0  0  0  0  0
   -3.3480    2.6125    0.0000 O   0  0  0  0  0  0  0  0  0  0  0  0
   -2.6336    1.3750    0.0000 C   0  0  0  0  0  0  0  0  0  0  0  0
   -2.6336    0.5500    0.0000 C   0  0  0  0  0  0  0  0  0  0  0  0
   -1.9191    1.7875    0.0000 C   0  0  0  0  0  0  0  0  0  0  0  0
   -1.2046    1.3750    0.0000 S   0  0  0  0  0  0  0  0  0  0  0  0
   -1.9191    2.6125    0.0000 O   0  0  0  0  0  0  0  0  0  0  0  0
   -0.4901    1.7875    0.0000 C   0  0  0  0  0  0  0  0  0  0  0  0
    0.2243    1.3750    0.0000 C   0  0  0  0  0  0  0  0  0  0  0  0
    0.9388    1.7875    0.0000 N   0  0  0  0  0  0  0  0  0  0  0  0
    1.6533    1.3750    0.0000 C   0  0  0  0  0  0  0  0  0  0  0  0
    2.3677    1.7875    0.0000 C   0  0  0  0  0  0  0  0  0  0  0  0
    1.6533    0.5500    0.0000 O   0  0  0  0  0  0  0  0  0  0  0  0
  7  8  1  0
  7  9  2  0
  2  5  1  0
  8 10  1  0
  1  3  1  0
 10 11  1  0
  5  6  1  0
 11 12  1  0
  1  2  1  0
 12 13  1  0
  5  7  1  0
 13 14  1  0
  2  4  2  0
 13 15  2  0
M  END

> <chembl_id>
CHEMBL243567

> <chembl_pref_name>
None

$$$$

     RDKit          2D

 13 11  0  0  0  0  0  0  0  0999 V2000
    4.0125   -5.4792    0.0000 Br  0  0  0  0  0  0  0  0  0  0  0  0
    4.9125   -1.1792    0.0000 C   0  0  0  0  0  0  0  0  0  0  0  0
    8.4292   -1.9250    0.0000 C   0  0  0  0  0  0  0  0  0  0  0  0
    4.1417   -2.3125    0.0000 N   0  0  0  0  0  0  0  0  0  0  0  0
    4.9125   -0.3792    0.0000 O   0  0  0  0  0  0  0  0  0  0  0  0
    8.3542   -2.7417    0.0000 O   0  0  0  0  0  0  0  0  0  0  0  0
    5.5792   -1.6625    0.0000 N   0  0  0  0  0  0  0  0  0  0  0  0
    7.7542   -1.4500    0.0000 S   0  0  0  0  0  0  0  0  0  0  0  0
    4.1500   -1.4500    0.0000 C   0  0  0  0  0  0  0  0  0  0  0  0
    9.1792   -1.5792    0.0000 C   0  0  0  0  0  0  0  0  0  0  0  0
    6.3292   -1.3167    0.0000 C   0  0  0  0  0  0  0  0  0  0  0  0
    7.0042   -1.7917    0.0000 C   0  0  0  0  0  0  0  0  0  0  0  0
    9.8542   -2.0542    0.0000 C   0  0  0  0  0  0  0  0  0  0  0  0
  3  8  1  0
  4  9  1  0
  5  2  2  0
  6  3  2  0
  7  2  1  0
  8 12  1  0
  9  2  1  0
 10  3  1  0
 11  7  1  0
 12 11  1  0
 13 10  1  0
M  END

> <chembl_id>
CHEMBL67577

> <chembl_pref_name>
None

$$$$

     RDKit          2D

 14 13  0  0  0  0  0  0  0  0999 V2000
    7.7625   -3.1833    0.0000 C   0  0  0  0  0  0  0  0  0  0  0  0
    8.4770   -2.7708    0.0000 C   0  0  0  0  0  0  0  0  0  0  0  0
    7.0480   -2.7708    0.0000 C   0  0  0  0  0  0  0  0  0  0  0  0
    9.1914   -3.1833    0.0000 C   0  0  0  0  0  0  0  0  0  0  0  0
    9.9059   -2.7708    0.0000 C   0  0  0  0  0  0  0  0  0  0  0  0
    9.1914   -4.0083    0.0000 C   0  0  0  0  0  0  0  0  0  0  0  0
   10.6204   -3.1833    0.0000 S   0  0  0  0  0  0  0  0  0  0  0  0
    9.9059   -1.9458    0.0000 O   0  0  0  0  0  0  0  0  0  0  0  0
   11.3349   -2.7708    0.0000 C   0  0  0  0  0  0  0  0  0  0  0  0
   12.0493   -3.1833    0.0000 C   0  0  0  0  0  0  0  0  0  0  0  0
   12.7638   -2.7708    0.0000 N   0  0  0  0  0  0  0  0  0  0  0  0
   13.4783   -3.1833    0.0000 C   0  0  0  0  0  0  0  0  0  0  0  0
   14.1927   -2.7708    0.0000 C   0  0  0  0  0  0  0  0  0  0  0  0
   13.4783   -4.0083    0.0000 O   0  0  0  0  0  0  0  0  0  0  0  0
  2  4  2  0
  5  8  2  0
  7  9  1  0
  4  5  1  0
  9 10  1  0
  1  3  1  0
 10 11  1  0
  4  6  1  0
 11 12  1  0
  1  2  1  0
 12 13  1  0
  5  7  1  0
 12 14  2  0
M  END

> <chembl_id>
CHEMBL244834

> <chembl_pref_name>
None

$$$$

     RDKit          2D

 18 16  0  0  0  0  0  0  0  0999 V2000
    3.7792   -9.5167    0.0000 C   0  0  0  0  0  0  0  0  0  0  0  0
    1.6875   -6.7667    0.0000 C   0  0  0  0  0  0  0  0  0  0  0  0
    3.7792  -10.3417    0.0000 O   0  0  0  0  0  0  0  0  0  0  0  0
    1.6875   -5.9625    0.0000 O   0  0  0  0  0  0  0  0  0  0  0  0
    3.0750   -9.1042    0.0000 N   0  0  0  0  0  0  0  0  0  0  0  0
    2.3542   -7.2417    0.0000 S   0  0  0  0  0  0  0  0  0  0  0  0
    0.9167   -7.8917    0.0000 N   0  0  0  0  0  0  0  0  0  0  0  0
    0.9250   -7.0292    0.0000 C   0  0  0  0  0  0  0  0  0  0  0  0
    4.5000   -9.1042    0.0000 C   0  0  0  0  0  0  0  0  0  0  0  0
    3.0792   -8.2792    0.0000 C   0  0  0  0  0  0  0  0  0  0  0  0
    2.2792   -8.0667    0.0000 C   0  0  0  0  0  0  0  0  0  0  0  0
    1.1125  -11.1000    0.0000 C   0  0  0  0  0  0  0  0  0  0  0  0
    1.1125  -11.9250    0.0000 C   0  0  0  0  0  0  0  0  0  0  0  0
    1.8250  -12.3292    0.0000 O   0  0  0  0  0  0  0  0  0  0  0  0
    0.3917  -12.3292    0.0000 O   0  0  0  0  0  0  0  0  0  0  0  0
    0.5042  -10.6042    0.0000 F   0  0  0  0  0  0  0  0  0  0  0  0
    1.1125  -10.4167    0.0000 F   0  0  0  0  0  0  0  0  0  0  0  0
    1.7167  -10.6042    0.0000 F   0  0  0  0  0  0  0  0  0  0  0  0
  2  6  1  0
  3  1  2  0
  4  2  2  0
  5  1  1  0
  6 11  1  0
  7  8  1  0
  8  2  1  0
  9  1  1  0
 10  5  1  0
 11 10  1  0
 13 12  1  0
 14 13  1  0
 15 13  2  0
 16 12  1  0
 17 12  1  0
 18 12  1  0
M  END

> <chembl_id>
CHEMBL1160367

> <chembl_pref_name>
None

$$$$

     RDKit          2D

 64 66  0  0  1  0  0  0  0  0999 V2000
    3.5917   -0.6292    0.0000 N   0  0  0  0  0  0  0  0  0  0  0  0
    2.6375   -1.7167    0.0000 C   0  0  0  0  0  0  0  0  0  0  0  0
   -1.9333    0.5708    0.0000 C   0  0  0  0  0  0  0  0  0  0  0  0
   -1.2333    0.3250    0.0000 C   0  0  0  0  0  0  0  0  0  0  0  0
    3.0417    1.3958    0.0000 N   0  0  0  0  0  0  0  0  0  0  0  0
    1.9292   -1.9125    0.0000 N   0  0  0  0  0  0  0  0  0  0  0  0
    0.3792    1.2125    0.0000 C   0  0  0  0  0  0  0  0  0  0  0  0
    3.6792    0.0875    0.0000 C   0  0  0  0  0  0  0  0  0  0  0  0
   -2.4833    0.0833    0.0000 N   0  0  0  0  0  0  0  0  0  0  0  0
    0.9667    1.6625    0.0000 N   0  0  0  0  0  0  0  0  0  0  0  0
    2.4167    1.7583    0.0000 C   0  0  0  0  0  0  0  0  0  0  0  0
    0.0167    0.5833    0.0000 C   0  0  0  0  0  0  0  0  0  0  0  0
   -3.1833    0.3208    0.0000 C   0  0  0  0  0  0  0  0  0  0  0  0
    3.2167   -1.2750    0.0000 C   0  0  0  0  0  0  0  0  0  0  0  0
   -0.6833    0.8125    0.0000 N   0  0  0  0  0  0  0  0  0  0  0  0
    3.5000    0.8000    0.0000 C   0  0  0  0  0  0  0  0  0  0  0  0
   -4.9833   -0.4167    0.0000 C   0  0  0  0  0  0  0  0  0  0  0  0
   -4.4333    0.0708    0.0000 N   0  0  0  0  0  0  0  0  0  0  0  0
   -3.7375   -0.1667    0.0000 C   0  0  0  0  0  0  0  0  0  0  0  0
    0.5542   -1.4417    0.0000 C   0  0  0  0  0  0  0  0  0  0  0  0
    0.1167   -0.8667    0.0000 S   0  0  0  0  0  0  0  0  0  0  0  0
    1.2000   -1.8125    0.0000 C   0  0  0  0  0  0  0  0  0  0  0  0
    1.6792    1.8500    0.0000 C   0  0  0  0  0  0  0  0  0  0  0  0
   -0.0750   -0.1542    0.0000 C   0  0  0  0  0  0  0  0  0  0  0  0
   -5.6833   -0.1792    0.0000 C   0  0  0  0  0  0  0  0  0  0  0  0
    2.9625   -2.3792    0.0000 O   0  0  0  0  0  0  0  0  0  0  0  0
   -1.0875   -0.3917    0.0000 O   0  0  0  0  0  0  0  0  0  0  0  0
   -0.1625    1.7000    0.0000 O   0  0  0  0  0  0  0  0  0  0  0  0
    4.4167    0.1375    0.0000 O   0  0  0  0  0  0  0  0  0  0  0  0
    2.6417    2.4583    0.0000 O   0  0  0  0  0  0  0  0  0  0  0  0
   -3.3208    1.0375    0.0000 O   0  0  0  0  0  0  0  0  0  0  0  0
    4.1542    1.1333    0.0000 C   0  0  0  0  0  0  0  0  0  0  0  0
   -4.8458   -1.1417    0.0000 O   0  0  0  0  0  0  0  0  0  0  0  0
    0.0792   -2.0000    0.0000 O   0  0  0  0  0  0  0  0  0  0  0  0
   -5.8333    0.5458    0.0000 C   0  0  0  0  0  0  0  0  0  0  0  0
   -2.0708    1.2958    0.0000 C   0  0  0  0  0  0  0  0  0  0  0  0
    3.7750   -1.7542    0.0000 C   0  0  0  0  0  0  0  0  0  0  0  0
   -5.2708    1.0250    0.0000 C   0  0  0  0  0  0  0  0  0  0  0  0
   -6.2292   -0.6667    0.0000 N   0  0  0  0  0  0  0  0  0  0  0  0
    0.9542   -2.5167    0.0000 C   0  0  0  0  0  0  0  0  0  0  0  0
   -4.1708    1.9958    0.0000 C   0  0  0  0  0  0  0  0  0  0  0  0
    4.7625    0.7208    0.0000 C   0  0  0  0  0  0  0  0  0  0  0  0
    0.0000   -3.3542    0.0000 S   0  0  0  0  0  0  0  0  0  0  0  0
   -3.5958   -0.8875    0.0000 C   0  0  0  0  0  0  0  0  0  0  0  0
   -5.4208    1.7458    0.0000 C   0  0  0  0  0  0  0  0  0  0  0  0
   -4.5833    0.7958    0.0000 C   0  0  0  0  0  0  0  0  0  0  0  0
   -4.8625    2.2375    0.0000 C   0  0  0  0  0  0  0  0  0  0  0  0
   -4.0333    1.2750    0.0000 C   0  0  0  0  0  0  0  0  0  0  0  0
   -1.5208    1.7708    0.0000 O   0  0  0  0  0  0  0  0  0  0  0  0
   -3.6125    2.4833    0.0000 O   0  0  0  0  0  0  0  0  0  0  0  0
   -2.8875   -1.1292    0.0000 O   0  0  0  0  0  0  0  0  0  0  0  0
    1.6375    2.5833    0.0000 C   0  0  0  0  0  0  0  0  0  0  0  0
    0.2375   -2.6542    0.0000 C   0  0  0  0  0  0  0  0  0  0  0  0
    4.4792   -1.5167    0.0000 C   0  0  0  0  0  0  0  0  0  0  0  0
   -2.7708    1.5250    0.0000 C   0  0  0  0  0  0  0  0  0  0  0  0
   -0.7208   -3.5000    0.0000 C   0  0  0  0  0  0  0  0  0  0  0  0
    3.6292   -2.4792    0.0000 C   0  0  0  0  0  0  0  0  0  0  0  0
    4.7167   -0.0125    0.0000 C   0  0  0  0  0  0  0  0  0  0  0  0
    5.4292    1.0458    0.0000 C   0  0  0  0  0  0  0  0  0  0  0  0
    5.0292   -2.0042    0.0000 C   0  0  0  0  0  0  0  0  0  0  0  0
    5.3292   -0.4167    0.0000 C   0  0  0  0  0  0  0  0  0  0  0  0
    6.0417    0.6458    0.0000 C   0  0  0  0  0  0  0  0  0  0  0  0
    5.9917   -0.0917    0.0000 C   0  0  0  0  0  0  0  0  0  0  0  0
    4.2027   -1.1081    0.0000 H   0  0  0  0  0  0  0  0  0  0  0  0
  2 14  1  0
  3  4  1  0
  4 15  1  0
  5 16  1  0
  6  2  1  0
  7 10  1  0
  8  1  1  0
  3  9  1  1
 10 23  1  0
 11  5  1  0
 12 24  1  0
 13  9  1  0
 14  1  1  0
 12 15  1  6
 16  8  1  0
 17 18  1  0
 19 18  1  6
 19 13  1  0
 20 22  1  0
 21 20  1  0
 22  6  1  0
 23 11  1  0
 24 21  1  0
 25 17  1  0
 26  2  2  0
 27  4  2  0
 28  7  2  0
 29  8  2  0
 30 11  2  0
 31 13  2  0
 16 32  1  6
 33 17  2  0
 34 20  2  0
 25 35  1  0
  3 36  1  0
 14 37  1  0
 38 35  1  0
 25 39  1  1
 22 40  1  6
 41 48  2  0
 42 32  1  0
 43 53  1  0
 19 44  1  0
 45 38  1  0
 46 38  2  0
 47 45  2  0
 48 46  1  0
 36 49  1  1
 50 41  1  0
 51 44  1  0
 23 52  1  1
 53 40  1  0
 54 37  1  0
 55 36  1  0
 56 43  1  0
 37 57  1  6
 58 42  2  0
 59 42  1  0
 60 54  1  0
 61 58  1  0
 62 59  2  0
 63 62  1  0
 61 63  2  0
  7 12  1  0
 47 41  1  0
 14 64  1  6
M  END

> <chembl_id>
CHEMBL362838

> <chembl_pref_name>
None

$$$$

     RDKit          2D

 20 20  0  0  0  0  0  0  0  0999 V2000
    0.1640   -2.9932    0.0000 N   0  0  0  0  0  0  0  0  0  0  0  0
    0.8785   -3.4057    0.0000 C   0  0  0  0  0  0  0  0  0  0  0  0
    1.5929   -2.9932    0.0000 C   0  0  0  0  0  0  0  0  0  0  0  0
    2.3074   -3.4057    0.0000 S   0  0  0  0  0  0  0  0  0  0  0  0
   -0.5505   -3.4057    0.0000 C   0  0  0  0  0  0  0  0  0  0  0  0
   -1.2649   -2.9932    0.0000 O   0  0  0  0  0  0  0  0  0  0  0  0
   -0.5505   -4.2307    0.0000 C   0  0  0  0  0  0  0  0  0  0  0  0
    3.0219   -2.9932    0.0000 C   0  0  0  0  0  0  0  0  0  0  0  0
    3.0219   -2.1682    0.0000 O   0  0  0  0  0  0  0  0  0  0  0  0
    4.4508   -2.9932    0.0000 C   0  0  0  0  0  0  0  0  0  0  0  0
    5.1653   -3.4057    0.0000 N   0  0  0  0  0  0  0  0  0  0  0  0
    5.8798   -2.9932    0.0000 C   0  0  0  0  0  0  0  0  0  0  0  0
    5.8798   -2.1682    0.0000 O   0  0  0  0  0  0  0  0  0  0  0  0
    6.5942   -3.4057    0.0000 C   0  0  0  0  0  0  0  0  0  0  0  0
    7.3087   -2.9932    0.0000 C   0  0  0  0  0  0  0  0  0  0  0  0
    8.0232   -3.4057    0.0000 C   0  0  0  0  0  0  0  0  0  0  0  0
    8.0232   -4.2307    0.0000 C   0  0  0  0  0  0  0  0  0  0  0  0
    7.3087   -4.6432    0.0000 C   0  0  0  0  0  0  0  0  0  0  0  0
    6.5942   -4.2307    0.0000 C   0  0  0  0  0  0  0  0  0  0  0  0
    3.7364   -3.4057    0.0000 C   0  0  0  0  0  0  0  0  0  0  0  0
 10 11  1  0
  5  6  2  0
 11 12  1  0
  5  7  1  0
 12 13  2  0
  1  5  1  0
 12 14  1  0
 14 15  2  0
  8  4  1  0
 15 16  1  0
  1  2  1  0
 16 17  2  0
  8  9  2  0
 17 18  1  0
  2  3  1  0
 18 19  2  0
 19 14  1  0
  3  4  1  0
 10 20  1  0
 20  8  1  0
M  END

> <chembl_id>
CHEMBL461175

> <chembl_pref_name>
None

$$$$

     RDKit          2D

 66 65  0  0  1  0  0  0  0  0999 V2000
    5.3792   -0.3792    0.0000 C   0  0  0  0  0  0  0  0  0  0  0  0
    3.9542   -0.3792    0.0000 N   0  0  0  0  0  0  0  0  0  0  0  0
   10.3792   -0.8000    0.0000 N   0  0  0  0  0  0  0  0  0  0  0  0
    9.6667   -0.3875    0.0000 C   0  0  0  0  0  0  0  0  0  0  0  0
    3.2500   -0.7917    0.0000 C   0  0  0  0  0  0  0  0  0  0  0  0
    1.1042   -0.4000    0.0000 C   0  0  0  0  0  0  0  0  0  0  0  0
   -1.0375   -0.8167    0.0000 C   0  0  0  0  0  0  0  0  0  0  0  0
    7.5250   -0.8000    0.0000 C   0  0  0  0  0  0  0  0  0  0  0  0
    1.8167   -0.8042    0.0000 N   0  0  0  0  0  0  0  0  0  0  0  0
    8.2417   -0.3875    0.0000 N   0  0  0  0  0  0  0  0  0  0  0  0
   -0.3250   -0.4042    0.0000 N   0  0  0  0  0  0  0  0  0  0  0  0
    4.6667   -0.7917    0.0000 C   0  0  0  0  0  0  0  0  0  0  0  0
    6.0917   -0.7917    0.0000 N   0  0  0  0  0  0  0  0  0  0  0  0
   11.0917   -0.3792    0.0000 C   0  0  0  0  0  0  0  0  0  0  0  0
   -3.1833   -0.4167    0.0000 C   0  0  0  0  0  0  0  0  0  0  0  0
    8.9542   -0.8000    0.0000 C   0  0  0  0  0  0  0  0  0  0  0  0
    2.5292   -0.3917    0.0000 C   0  0  0  0  0  0  0  0  0  0  0  0
    0.3917   -0.8125    0.0000 C   0  0  0  0  0  0  0  0  0  0  0  0
   11.8042   -0.7875    0.0000 C   0  0  0  0  0  0  0  0  0  0  0  0
   -2.4708   -0.8292    0.0000 N   0  0  0  0  0  0  0  0  0  0  0  0
   -1.7583   -0.4125    0.0000 C   0  0  0  0  0  0  0  0  0  0  0  0
   -3.8958   -0.8375    0.0000 C   0  0  0  0  0  0  0  0  0  0  0  0
    6.8125   -0.3792    0.0000 C   0  0  0  0  0  0  0  0  0  0  0  0
   -1.0500    1.6583    0.0000 C   0  0  0  0  0  0  0  0  0  0  0  0
   15.3750   -0.3417    0.0000 C   0  0  0  0  0  0  0  0  0  0  0  0
    5.3875    0.4458    0.0000 O   0  0  0  0  0  0  0  0  0  0  0  0
    3.2542   -1.6167    0.0000 O   0  0  0  0  0  0  0  0  0  0  0  0
    9.6667    0.4375    0.0000 O   0  0  0  0  0  0  0  0  0  0  0  0
    1.1000    0.4250    0.0000 O   0  0  0  0  0  0  0  0  0  0  0  0
   -1.0333   -1.6417    0.0000 O   0  0  0  0  0  0  0  0  0  0  0  0
    7.5250   -1.6250    0.0000 O   0  0  0  0  0  0  0  0  0  0  0  0
   -3.1875    0.4083    0.0000 O   0  0  0  0  0  0  0  0  0  0  0  0
   11.8125   -1.6125    0.0000 O   0  0  0  0  0  0  0  0  0  0  0  0
    8.9500   -1.6250    0.0000 C   0  0  0  0  0  0  0  0  0  0  0  0
    2.5250    0.4333    0.0000 C   0  0  0  0  0  0  0  0  0  0  0  0
    0.3917   -1.6375    0.0000 C   0  0  0  0  0  0  0  0  0  0  0  0
   -1.7708    2.0625    0.0000 O   0  0  0  0  0  0  0  0  0  0  0  0
   15.3667    0.4833    0.0000 O   0  0  0  0  0  0  0  0  0  0  0  0
   -1.7583    0.4125    0.0000 C   0  0  0  0  0  0  0  0  0  0  0  0
   12.5167   -0.3667    0.0000 S   0  0  0  0  0  0  0  0  0  0  0  0
   14.6667   -0.7625    0.0000 N   0  0  0  0  0  0  0  0  0  0  0  0
    4.6667   -1.6167    0.0000 C   0  0  0  0  0  0  0  0  0  0  0  0
   -1.0458    0.8333    0.0000 C   0  0  0  0  0  0  0  0  0  0  0  0
   11.0792    0.4458    0.0000 C   0  0  0  0  0  0  0  0  0  0  0  0
   -0.3375    2.0708    0.0000 N   0  0  0  0  0  0  0  0  0  0  0  0
   -4.6083   -0.4292    0.0000 C   0  0  0  0  0  0  0  0  0  0  0  0
   -4.6125    0.3958    0.0000 O   0  0  0  0  0  0  0  0  0  0  0  0
    9.6667   -2.0375    0.0000 C   0  0  0  0  0  0  0  0  0  0  0  0
    1.1125   -2.0500    0.0000 C   0  0  0  0  0  0  0  0  0  0  0  0
    3.2375    0.8583    0.0000 C   0  0  0  0  0  0  0  0  0  0  0  0
   16.0917   -0.7500    0.0000 C   0  0  0  0  0  0  0  0  0  0  0  0
    6.8167    0.4458    0.0000 C   0  0  0  0  0  0  0  0  0  0  0  0
   13.2375   -0.7750    0.0000 C   0  0  0  0  0  0  0  0  0  0  0  0
   13.9417   -0.3542    0.0000 C   0  0  0  0  0  0  0  0  0  0  0  0
   11.7917    0.8625    0.0000 C   0  0  0  0  0  0  0  0  0  0  0  0
    3.9500   -2.0250    0.0000 C   0  0  0  0  0  0  0  0  0  0  0  0
    5.3792   -2.0292    0.0000 C   0  0  0  0  0  0  0  0  0  0  0  0
   10.3625    0.8500    0.0000 C   0  0  0  0  0  0  0  0  0  0  0  0
   -5.3208   -0.8417    0.0000 C   0  0  0  0  0  0  0  0  0  0  0  0
    1.8250   -1.6292    0.0000 C   0  0  0  0  0  0  0  0  0  0  0  0
   10.3792   -1.6250    0.0000 C   0  0  0  0  0  0  0  0  0  0  0  0
    3.2292    1.6833    0.0000 C   0  0  0  0  0  0  0  0  0  0  0  0
    3.9542    0.4458    0.0000 C   0  0  0  0  0  0  0  0  0  0  0  0
    9.6667   -2.8625    0.0000 C   0  0  0  0  0  0  0  0  0  0  0  0
    1.1167   -2.8750    0.0000 C   0  0  0  0  0  0  0  0  0  0  0  0
   11.7875    1.6875    0.0000 C   0  0  0  0  0  0  0  0  0  0  0  0
 12  2  1  6
  3  4  1  0
  4 16  1  0
  5  2  1  0
  6  9  1  0
  7 11  1  0
  8 23  1  0
 17  9  1  6
 10  8  1  0
 18 11  1  6
 12  1  1  0
 13  1  1  0
 14  3  1  1
 15 20  1  0
 16 10  1  1
 17  5  1  0
 18  6  1  0
 19 14  1  0
 21 20  1  1
 21  7  1  0
 22 15  1  0
 23 13  1  0
 24 43  1  0
 25 41  1  0
 26  1  2  0
 27  5  2  0
 28  4  2  0
 29  6  2  0
 30  7  2  0
 31  8  2  0
 32 15  2  0
 33 19  2  0
 16 34  1  0
 17 35  1  0
 18 36  1  0
 37 24  2  0
 38 25  2  0
 21 39  1  0
 40 19  1  0
 41 54  1  0
 12 42  1  0
 43 39  1  0
 14 44  1  0
 45 24  1  0
 46 22  1  0
 46 47  1  1
 48 34  1  0
 49 36  1  0
 50 35  1  0
 51 25  1  0
 23 52  1  1
 53 40  1  0
 54 53  1  0
 55 44  1  0
 56 42  1  0
 57 42  1  0
 44 58  1  1
 59 46  1  0
 60 49  1  0
 61 48  1  0
 62 50  1  0
 63 50  1  0
 64 48  1  0
 65 49  1  0
 66 55  1  0
M  END

> <chembl_id>
CHEMBL2371860

> <chembl_pref_name>
None

$$$$

     RDKit          2D

 22 21  0  0  0  0  0  0  0  0999 V2000
   15.9635    0.6495    0.0000 C   0  0  0  0  0  0  0  0  0  0  0  0
   14.6644   -0.1005    0.0000 C   0  0  0  0  0  0  0  0  0  0  0  0
   13.3654    0.6495    0.0000 C   0  0  0  0  0  0  0  0  0  0  0  0
   12.0663   -0.1005    0.0000 C   0  0  0  0  0  0  0  0  0  0  0  0
   14.6644   -1.6005    0.0000 N   0  0  0  0  0  0  0  0  0  0  0  0
   15.9635    2.1495    0.0000 O   0  0  0  0  0  0  0  0  0  0  0  0
   17.2625   -0.1005    0.0000 O   0  0  0  0  0  0  0  0  0  0  0  0
   18.5615    0.6495    0.0000 C   0  0  0  0  0  0  0  0  0  0  0  0
   19.8606   -0.1005    0.0000 C   0  0  0  0  0  0  0  0  0  0  0  0
   10.7673    0.6495    0.0000 C   0  0  0  0  0  0  0  0  0  0  0  0
    9.4683   -0.1005    0.0000 N   0  0  0  0  0  0  0  0  0  0  0  0
   10.7673    2.1495    0.0000 O   0  0  0  0  0  0  0  0  0  0  0  0
    8.1692    0.6495    0.0000 C   0  0  0  0  0  0  0  0  0  0  0  0
    6.8702   -0.1005    0.0000 C   0  0  0  0  0  0  0  0  0  0  0  0
    5.5712    0.6495    0.0000 S   0  0  0  0  0  0  0  0  0  0  0  0
    4.2721   -0.1005    0.0000 C   0  0  0  0  0  0  0  0  0  0  0  0
    2.9731    0.6495    0.0000 C   0  0  0  0  0  0  0  0  0  0  0  0
    4.2721   -1.6005    0.0000 O   0  0  0  0  0  0  0  0  0  0  0  0
    1.6740   -0.1005    0.0000 C   0  0  0  0  0  0  0  0  0  0  0  0
    2.9731    2.1495    0.0000 C   0  0  0  0  0  0  0  0  0  0  0  0
    1.6740    1.3995    0.0000 C   0  0  0  0  0  0  0  0  0  0  0  0
   21.1596    0.6496    0.0000 C   0  0  0  0  0  0  0  0  0  0  0  0
  1  2  1  0
  2  3  1  0
  3  4  1  0
  2  5  1  1
  1  6  2  0
  8  9  1  0
  7  8  1  0
  1  7  1  0
 10 11  1  0
 10 12  2  0
 13 14  1  0
 16 17  1  0
 16 18  2  0
 15 16  1  0
 14 15  1  0
 11 13  1  0
  4 10  1  0
 17 19  1  0
 17 20  1  0
 17 21  1  0
  9 22  1  0
M  END

> <chembl_id>
CHEMBL3765831

> <chembl_pref_name>
None

$$$$

     RDKit          2D

 58 60  0  0  1  0  0  0  0  0999 V2000
   -5.5514  -18.4125    0.0000 C   0  0  0  0  0  0  0  0  0  0  0  0
   -5.5526  -19.2398    0.0000 N   0  0  0  0  0  0  0  0  0  0  0  0
   -4.8378  -19.6527    0.0000 C   0  0  0  0  0  0  0  0  0  0  0  0
   -4.8396  -17.9997    0.0000 N   0  0  0  0  0  0  0  0  0  0  0  0
   -4.1242  -18.4088    0.0000 C   0  0  0  0  0  0  0  0  0  0  0  0
   -4.1239  -19.2399    0.0000 C   0  0  0  0  0  0  0  0  0  0  0  0
   -3.3335  -19.4965    0.0000 N   0  0  0  0  0  0  0  0  0  0  0  0
   -2.8451  -18.8240    0.0000 C   0  0  0  0  0  0  0  0  0  0  0  0
   -3.3339  -18.1518    0.0000 N   0  0  0  0  0  0  0  0  0  0  0  0
   -3.0792  -17.3671    0.0000 C   0  0  0  0  0  0  0  0  0  0  0  0
   -2.2978  -17.1172    0.0000 O   0  0  0  0  0  0  0  0  0  0  0  0
   -2.2980  -16.2922    0.0000 C   0  0  0  0  0  0  0  0  0  0  0  0
   -3.0828  -16.0375    0.0000 C   0  0  0  0  0  0  0  0  0  0  0  0
   -3.5674  -16.7052    0.0000 C   0  0  0  0  0  0  0  0  0  0  0  0
   -1.6308  -15.8071    0.0000 C   0  0  0  0  0  0  0  0  0  0  0  0
   -0.8770  -16.1424    0.0000 O   0  0  0  0  0  0  0  0  0  0  0  0
   -3.3381  -15.2530    0.0000 O   0  0  0  0  0  0  0  0  0  0  0  0
   -4.3924  -16.7083    0.0000 O   0  0  0  0  0  0  0  0  0  0  0  0
   -2.7863  -14.6397    0.0000 P   0  0  0  0  0  0  0  0  0  0  0  0
   -2.2042  -14.0500    0.0000 O   0  0  0  0  0  0  0  0  0  0  0  0
   -3.3867  -14.0739    0.0000 O   0  0  0  0  0  0  0  0  0  0  0  0
   -2.1885  -15.2083    0.0000 O   0  0  0  0  0  0  0  0  0  0  0  0
   -0.2097  -15.6573    0.0000 P   0  0  0  0  0  0  0  0  0  0  0  0
    0.5000  -15.2375    0.0000 O   0  0  0  0  0  0  0  0  0  0  0  0
   -0.6628  -14.9678    0.0000 O   0  0  0  0  0  0  0  0  0  0  0  0
    0.2438  -16.3464    0.0000 O   0  0  0  0  0  0  0  0  0  0  0  0
    1.2188  -15.6425    0.0000 P   0  0  0  0  0  0  0  0  0  0  0  0
    1.9292  -16.0542    0.0000 O   0  0  0  0  0  0  0  0  0  0  0  0
    1.6281  -14.9262    0.0000 O   0  0  0  0  0  0  0  0  0  0  0  0
    0.8129  -16.3607    0.0000 O   0  0  0  0  0  0  0  0  0  0  0  0
    2.6443  -15.6428    0.0000 C   0  0  0  0  0  0  0  0  0  0  0  0
    3.3581  -16.0565    0.0000 C   0  0  0  0  0  0  0  0  0  0  0  0
    4.0667  -16.4667    0.0000 C   0  0  0  0  0  0  0  0  0  0  0  0
    2.9446  -16.7704    0.0000 C   0  0  0  0  0  0  0  0  0  0  0  0
    3.7770  -15.3458    0.0000 C   0  0  0  0  0  0  0  0  0  0  0  0
    4.0657  -17.2917    0.0000 O   0  0  0  0  0  0  0  0  0  0  0  0
    4.7816  -16.0550    0.0000 C   0  0  0  0  0  0  0  0  0  0  0  0
    5.4956  -16.4683    0.0000 N   0  0  0  0  0  0  0  0  0  0  0  0
    4.7825  -15.2300    0.0000 O   0  0  0  0  0  0  0  0  0  0  0  0
    6.2105  -16.0566    0.0000 C   0  0  0  0  0  0  0  0  0  0  0  0
    6.9245  -16.4699    0.0000 C   0  0  0  0  0  0  0  0  0  0  0  0
    7.6395  -16.0582    0.0000 C   0  0  0  0  0  0  0  0  0  0  0  0
    8.3535  -16.4715    0.0000 N   0  0  0  0  0  0  0  0  0  0  0  0
    7.6404  -15.2332    0.0000 O   0  0  0  0  0  0  0  0  0  0  0  0
    9.0684  -16.0598    0.0000 C   0  0  0  0  0  0  0  0  0  0  0  0
    9.7824  -16.4731    0.0000 C   0  0  0  0  0  0  0  0  0  0  0  0
   10.4974  -16.0614    0.0000 S   0  0  0  0  0  0  0  0  0  0  0  0
   -4.8376  -20.4777    0.0000 N   0  0  0  0  0  0  0  0  0  0  0  0
   11.2114  -16.4747    0.0000 C   0  0  0  0  0  0  0  0  0  0  0  0
   11.9263  -16.0630    0.0000 C   0  0  0  0  0  0  0  0  0  0  0  0
   11.2104  -17.2997    0.0000 O   0  0  0  0  0  0  0  0  0  0  0  0
   12.6403  -16.4763    0.0000 C   0  0  0  0  0  0  0  0  0  0  0  0
   13.3552  -16.0646    0.0000 C   0  0  0  0  0  0  0  0  0  0  0  0
   12.6394  -17.3013    0.0000 O   0  0  0  0  0  0  0  0  0  0  0  0
   14.0693  -16.4779    0.0000 C   0  0  0  0  0  0  0  0  0  0  0  0
   14.7842  -16.0662    0.0000 C   0  0  0  0  0  0  0  0  0  0  0  0
   15.4982  -16.4795    0.0000 C   0  0  0  0  0  0  0  0  0  0  0  0
   16.2131  -16.0678    0.0000 C   0  0  0  0  0  0  0  0  0  0  0  0
 27 28  1  0
 12 13  1  0
 27 29  1  0
 13 14  1  0
 27 30  2  0
 14 10  1  0
 28 31  1  0
  1  2  2  0
 31 32  1  0
 12 15  1  1
 32 33  1  0
  5  4  2  0
 32 34  1  0
 15 16  1  0
 32 35  1  0
  6  7  1  0
 33 36  1  6
 13 17  1  6
 33 37  1  0
  7  8  2  0
 37 38  1  0
 14 18  1  6
 37 39  2  0
  8  9  1  0
 38 40  1  0
 17 19  1  0
 40 41  1  0
  9  5  1  0
 41 42  1  0
 19 20  1  0
 42 43  1  0
  4  1  1  0
 42 44  2  0
 19 21  2  0
 43 45  1  0
 10  9  1  1
 45 46  1  0
 19 22  1  0
 46 47  1  0
 10 11  1  0
  3 48  1  0
 16 23  1  0
 47 49  1  0
  5  6  1  0
 49 50  1  0
 23 24  1  0
 49 51  2  0
 50 52  1  0
 23 25  2  0
 52 53  1  0
  2  3  1  0
 52 54  1  0
 23 26  1  0
 53 55  2  0
  3  6  2  0
 55 56  1  0
 24 27  1  0
 56 57  1  0
 11 12  1  0
 57 58  1  0
M  END

> <chembl_id>
CHEMBL400818

> <chembl_pref_name>
None

$$$$

     RDKit          2D

 12 10  0  0  0  0  0  0  0  0999 V2000
   12.8999    0.3750    0.0000 Br  0  0  0  0  0  0  0  0  0  0  0  0
    1.3000    0.7500    0.0000 C   0  0  0  0  0  0  0  0  0  0  0  0
    7.7999    0.0000    0.0000 C   0  0  0  0  0  0  0  0  0  0  0  0
    0.2606    0.1503    0.0000 O   0  0  0  0  0  0  0  0  0  0  0  0
    7.7999   -1.2000    0.0000 O   0  0  0  0  0  0  0  0  0  0  0  0
    2.6000    0.0000    0.0000 N   0  0  0  0  0  0  0  0  0  0  0  0
    6.5000    0.7500    0.0000 S   0  0  0  0  0  0  0  0  0  0  0  0
   10.1394    0.1503    0.0000 N   0  0  0  0  0  0  0  0  0  0  0  0
    9.0999    0.7500    0.0000 C   0  0  0  0  0  0  0  0  0  0  0  0
    1.3000    1.9500    0.0000 C   0  0  0  0  0  0  0  0  0  0  0  0
    3.9000    0.7500    0.0000 C   0  0  0  0  0  0  0  0  0  0  0  0
    5.2000    0.0000    0.0000 C   0  0  0  0  0  0  0  0  0  0  0  0
  2  4  2  0
  3  5  2  0
  2  6  1  0
  3  7  1  0
  3  9  1  0
  8  9  1  0
  2 10  1  0
  6 11  1  0
  7 12  1  0
 11 12  1  0
M  END

> <chembl_id>
CHEMBL545455

> <chembl_pref_name>
None

$$$$

     RDKit          2D

 53 55  0  0  0  0  0  0  0  0999 V2000
    2.9998    3.3437    0.0000 C   0  0  0  0  0  0  0  0  0  0  0  0
    2.2854    3.7562    0.0000 C   0  0  0  0  0  0  0  0  0  0  0  0
    2.6979    4.4706    0.0000 C   0  0  0  0  0  0  0  0  0  0  0  0
    1.5709    4.1687    0.0000 C   0  0  0  0  0  0  0  0  0  0  0  0
    0.8564    3.7562    0.0000 O   0  0  0  0  0  0  0  0  0  0  0  0
    0.1419    4.1687    0.0000 P   0  0  0  0  0  0  0  0  0  0  0  0
   -0.2706    3.4542    0.0000 O   0  0  0  0  0  0  0  0  0  0  0  0
    0.5544    4.8831    0.0000 O   0  0  0  0  0  0  0  0  0  0  0  0
   -0.5725    4.5812    0.0000 O   0  0  0  0  0  0  0  0  0  0  0  0
   -1.2870    4.1687    0.0000 P   0  0  0  0  0  0  0  0  0  0  0  0
   -0.8745    3.4542    0.0000 O   0  0  0  0  0  0  0  0  0  0  0  0
   -1.6995    4.8831    0.0000 O   0  0  0  0  0  0  0  0  0  0  0  0
   -2.0015    3.7562    0.0000 O   0  0  0  0  0  0  0  0  0  0  0  0
   -2.7159    4.1687    0.0000 C   0  0  0  0  0  0  0  0  0  0  0  0
   -3.4304    3.7562    0.0000 C   0  0  0  0  0  0  0  0  0  0  0  0
   -3.5166    2.9357    0.0000 O   0  0  0  0  0  0  0  0  0  0  0  0
   -4.1841    4.0917    0.0000 C   0  0  0  0  0  0  0  0  0  0  0  0
   -4.3556    4.8987    0.0000 O   0  0  0  0  0  0  0  0  0  0  0  0
   -3.7425    5.4507    0.0000 P   0  0  0  0  0  0  0  0  0  0  0  0
   -3.1905    4.8376    0.0000 O   0  0  0  0  0  0  0  0  0  0  0  0
   -4.2945    6.0638    0.0000 O   0  0  0  0  0  0  0  0  0  0  0  0
   -3.1294    6.0028    0.0000 O   0  0  0  0  0  0  0  0  0  0  0  0
   -4.7361    3.4786    0.0000 C   0  0  0  0  0  0  0  0  0  0  0  0
   -5.5566    3.5649    0.0000 O   0  0  0  0  0  0  0  0  0  0  0  0
   -4.3236    2.7641    0.0000 C   0  0  0  0  0  0  0  0  0  0  0  0
   -4.6592    2.0105    0.0000 N   0  0  0  0  0  0  0  0  0  0  0  0
   -4.2467    1.2960    0.0000 C   0  0  0  0  0  0  0  0  0  0  0  0
   -4.7987    0.6829    0.0000 N   0  0  0  0  0  0  0  0  0  0  0  0
   -5.5524    1.0185    0.0000 C   0  0  0  0  0  0  0  0  0  0  0  0
   -5.4661    1.8389    0.0000 C   0  0  0  0  0  0  0  0  0  0  0  0
   -6.1336    2.3239    0.0000 N   0  0  0  0  0  0  0  0  0  0  0  0
   -6.8873    1.9883    0.0000 C   0  0  0  0  0  0  0  0  0  0  0  0
   -6.9735    1.1678    0.0000 N   0  0  0  0  0  0  0  0  0  0  0  0
   -6.3061    0.6829    0.0000 C   0  0  0  0  0  0  0  0  0  0  0  0
   -6.3923   -0.1376    0.0000 N   0  0  0  0  0  0  0  0  0  0  0  0
    2.9998    2.5187    0.0000 O   0  0  0  0  0  0  0  0  0  0  0  0
    3.7143    3.7562    0.0000 C   0  0  0  0  0  0  0  0  0  0  0  0
    3.7143    4.5812    0.0000 O   0  0  0  0  0  0  0  0  0  0  0  0
    4.4288    3.3437    0.0000 N   0  0  0  0  0  0  0  0  0  0  0  0
    5.1432    3.7562    0.0000 C   0  0  0  0  0  0  0  0  0  0  0  0
    5.8577    3.3437    0.0000 C   0  0  0  0  0  0  0  0  0  0  0  0
    6.5722    3.7562    0.0000 C   0  0  0  0  0  0  0  0  0  0  0  0
    6.5722    4.5812    0.0000 O   0  0  0  0  0  0  0  0  0  0  0  0
    7.2867    3.3437    0.0000 N   0  0  0  0  0  0  0  0  0  0  0  0
    8.0011    3.7562    0.0000 C   0  0  0  0  0  0  0  0  0  0  0  0
    8.7156    3.3437    0.0000 C   0  0  0  0  0  0  0  0  0  0  0  0
    9.4301    3.7562    0.0000 S   0  0  0  0  0  0  0  0  0  0  0  0
   10.1445    3.3437    0.0000 C   0  0  0  0  0  0  0  0  0  0  0  0
   10.1445    2.5187    0.0000 O   0  0  0  0  0  0  0  0  0  0  0  0
   10.8590    3.7562    0.0000 C   0  0  0  0  0  0  0  0  0  0  0  0
   11.5735    3.3437    0.0000 C   0  0  0  0  0  0  0  0  0  0  0  0
   12.2880    3.7562    0.0000 C   0  0  0  0  0  0  0  0  0  0  0  0
    1.8729    3.0417    0.0000 C   0  0  0  0  0  0  0  0  0  0  0  0
  1 36  1  1
 37  1  1  0
  2  1  1  0
  2 53  1  0
  2  3  1  0
  2  4  1  0
  4  5  1  0
  6  5  1  0
  7  6  2  0
  6  8  1  0
  9  6  1  0
 10  9  1  0
 11 10  2  0
 10 12  1  0
 13 10  1  0
 14 13  1  0
 15 14  1  1
 15 16  1  0
 17 15  1  0
 25 16  1  0
 23 17  1  0
 17 18  1  6
 18 19  1  0
 20 19  2  0
 21 19  1  0
 22 19  1  0
 25 23  1  0
 23 24  1  6
 25 26  1  1
 27 26  1  0
 30 26  1  0
 27 28  2  0
 29 28  1  0
 29 34  2  0
 30 29  1  0
 30 31  2  0
 32 31  1  0
 32 33  2  0
 34 33  1  0
 34 35  1  0
 37 38  2  0
 37 39  1  0
 40 39  1  0
 40 41  1  0
 41 42  1  0
 42 43  2  0
 42 44  1  0
 45 44  1  0
 45 46  1  0
 46 47  1  0
 48 47  1  0
 48 49  2  0
 48 50  1  0
 50 51  2  0
 52 51  1  0
M  END

> <chembl_id>
CHEMBL1213378

> <chembl_pref_name>
CROTONYL COENZYME A

$$$$

     RDKit          2D

 37 38  0  0  1  0  0  0  0  0999 V2000
   -0.9583  -10.3917    0.0000 N   0  0  0  0  0  0  0  0  0  0  0  0
   -0.3463  -10.0375    0.0000 C   0  0  0  0  0  0  0  0  0  0  0  0
    0.2699  -10.3917    0.0000 C   0  0  0  0  0  0  0  0  0  0  0  0
    0.2699  -11.1000    0.0000 O   0  0  0  0  0  0  0  0  0  0  0  0
   -0.3463   -9.3292    0.0000 C   0  0  0  0  0  0  0  0  0  0  0  0
    0.2699   -8.9750    0.0000 S   0  0  0  0  0  0  0  0  0  0  0  0
    2.5833  -10.7458    0.0000 N   0  0  0  0  0  0  0  0  0  0  0  0
    2.1750  -10.1750    0.0000 C   0  0  0  0  0  0  0  0  0  0  0  0
    2.1583  -11.3125    0.0000 C   0  0  0  0  0  0  0  0  0  0  0  0
    1.5000  -10.3875    0.0000 C   0  0  0  0  0  0  0  0  0  0  0  0
    1.4917  -11.0917    0.0000 C   0  0  0  0  0  0  0  0  0  0  0  0
    8.6833  -10.7042    0.0000 C   0  0  0  0  0  0  0  0  0  0  0  0
    5.1208   -9.8625    0.0000 C   0  0  0  0  0  0  0  0  0  0  0  0
    6.2458  -10.7042    0.0000 N   0  0  0  0  0  0  0  0  0  0  0  0
    6.8542  -10.3542    0.0000 C   0  0  0  0  0  0  0  0  0  0  0  0
    8.0667  -10.3542    0.0000 N   0  0  0  0  0  0  0  0  0  0  0  0
    9.2958  -10.3542    0.0000 C   0  0  0  0  0  0  0  0  0  0  0  0
    5.6250  -10.3583    0.0000 C   0  0  0  0  0  0  0  0  0  0  0  0
    2.1708   -9.4750    0.0000 O   0  0  0  0  0  0  0  0  0  0  0  0
    2.1583  -12.0125    0.0000 O   0  0  0  0  0  0  0  0  0  0  0  0
    8.6833  -11.4125    0.0000 O   0  0  0  0  0  0  0  0  0  0  0  0
    9.9000  -10.7042    0.0000 C   0  0  0  0  0  0  0  0  0  0  0  0
    4.4208   -9.8625    0.0000 O   0  0  0  0  0  0  0  0  0  0  0  0
    6.8500   -9.6458    0.0000 O   0  0  0  0  0  0  0  0  0  0  0  0
    7.4667  -10.7042    0.0000 C   0  0  0  0  0  0  0  0  0  0  0  0
    3.1833  -10.3875    0.0000 C   0  0  0  0  0  0  0  0  0  0  0  0
    5.3125   -9.1833    0.0000 O   0  0  0  0  0  0  0  0  0  0  0  0
   10.5042  -10.3583    0.0000 C   0  0  0  0  0  0  0  0  0  0  0  0
    9.2875   -9.6500    0.0000 C   0  0  0  0  0  0  0  0  0  0  0  0
    9.8917   -9.3000    0.0000 C   0  0  0  0  0  0  0  0  0  0  0  0
    5.0208  -10.7208    0.0000 C   0  0  0  0  0  0  0  0  0  0  0  0
   10.5125   -9.6500    0.0000 C   0  0  0  0  0  0  0  0  0  0  0  0
   11.1083  -10.7042    0.0000 I   0  0  0  0  0  0  0  0  0  0  0  0
    3.8000  -10.7375    0.0000 C   0  0  0  0  0  0  0  0  0  0  0  0
    4.4042  -10.3667    0.0000 C   0  0  0  0  0  0  0  0  0  0  0  0
    6.0917   -9.5375    0.0000 H   0  0  0  0  0  0  0  0  0  0  0  0
    0.8833  -10.0333    0.0000 S   0  0  0  0  0  0  0  0  0  0  0  0
  2  5  1  1
  5  6  1  0
  1  2  1  0
  2  3  1  0
  8  7  1  0
  9  7  1  0
 10  8  1  0
 11  9  1  0
 12 16  1  0
 18 13  1  6
 14 18  1  0
 15 14  1  0
 16 25  1  0
 17 12  1  0
 18 31  1  0
 19  8  2  0
 20  9  2  0
 21 12  2  0
 22 17  2  0
 23 13  2  0
 24 15  2  0
 25 15  1  0
 26  7  1  0
 27 13  1  0
 28 22  1  0
 29 17  1  0
 30 29  2  0
 31 35  1  0
 32 30  1  0
 33 28  1  0
 34 26  1  0
 35 34  1  0
 18 36  1  1
 10 11  1  0
 28 32  2  0
  3  4  2  0
 10 37  1  0
 37  3  1  0
M  ISO  1  33 125
M  END

> <chembl_id>
CHEMBL177417

> <chembl_pref_name>
None

$$$$

     RDKit          2D

 22 21  0  0  1  0  0  0  0  0999 V2000
    1.9792   -2.8792    0.0000 N   0  0  0  0  0  0  0  0  0  0  0  0
   -0.7583    0.3750    0.0000 C   0  0  0  0  0  0  0  0  0  0  0  0
   -0.0375    2.4458    0.0000 C   0  0  0  0  0  0  0  0  0  0  0  0
   -0.0375   -0.0292    0.0000 C   0  0  0  0  0  0  0  0  0  0  0  0
   -1.4708   -0.0292    0.0000 N   0  0  0  0  0  0  0  0  0  0  0  0
   -0.0375    1.6208    0.0000 S   0  0  0  0  0  0  0  0  0  0  0  0
    1.4042   -3.4667    0.0000 O   0  0  0  0  0  0  0  0  0  0  0  0
   -2.1833    0.3708    0.0000 C   0  0  0  0  0  0  0  0  0  0  0  0
    0.6750    2.8583    0.0000 C   0  0  0  0  0  0  0  0  0  0  0  0
    2.7792   -3.0917    0.0000 O   0  0  0  0  0  0  0  0  0  0  0  0
   -0.7583    1.2083    0.0000 C   0  0  0  0  0  0  0  0  0  0  0  0
   -0.7583    2.8583    0.0000 O   0  0  0  0  0  0  0  0  0  0  0  0
    0.6792    0.3708    0.0000 O   0  0  0  0  0  0  0  0  0  0  0  0
    1.7667   -2.0875    0.0000 O   0  0  0  0  0  0  0  0  0  0  0  0
   -2.8958   -0.0417    0.0000 O   0  0  0  0  0  0  0  0  0  0  0  0
   -0.0375   -0.8667    0.0000 N   0  0  0  0  0  0  0  0  0  0  0  0
    0.9667   -1.8750    0.0000 C   0  0  0  0  0  0  0  0  0  0  0  0
    1.2542    2.2708    0.0000 C   0  0  0  0  0  0  0  0  0  0  0  0
    0.2542    3.5708    0.0000 C   0  0  0  0  0  0  0  0  0  0  0  0
    1.3875    3.2708    0.0000 C   0  0  0  0  0  0  0  0  0  0  0  0
    0.7542   -1.0750    0.0000 C   0  0  0  0  0  0  0  0  0  0  0  0
   -2.1875    1.1958    0.0000 C   0  0  0  0  0  0  0  0  0  0  0  0
  2  4  1  0
  3  6  1  0
  4 16  1  0
  5  2  1  0
  6 11  1  0
  7  1  1  0
  8  5  1  0
  9  3  1  0
 10  1  2  0
  2 11  1  1
 12  3  2  0
 13  4  2  0
 14  1  1  0
 15  8  2  0
 16 21  1  0
 17 14  1  0
 18  9  1  0
 19  9  1  0
 20  9  1  0
 21 17  1  0
 22  8  1  0
M  CHG  2   1   1   7  -1
M  END

> <chembl_id>
CHEMBL36680

> <chembl_pref_name>
None

$$$$

     RDKit          2D

 65 67  0  0  1  0  0  0  0  0999 V2000
    4.0415   -0.2380    0.0000 N   0  0  0  0  0  0  0  0  0  0  0  0
    3.1490   -1.5837    0.0000 C   0  0  0  0  0  0  0  0  0  0  0  0
   -2.2519    0.2837    0.0000 C   0  0  0  0  0  0  0  0  0  0  0  0
   -1.4509    0.1327    0.0000 C   0  0  0  0  0  0  0  0  0  0  0  0
    3.1490    1.9314    0.0000 N   0  0  0  0  0  0  0  0  0  0  0  0
    2.3938   -1.8995    0.0000 N   0  0  0  0  0  0  0  0  0  0  0  0
    0.2243    1.3547    0.0000 C   0  0  0  0  0  0  0  0  0  0  0  0
    4.0415    0.5995    0.0000 C   0  0  0  0  0  0  0  0  0  0  0  0
   -2.7965   -0.3295    0.0000 N   0  0  0  0  0  0  0  0  0  0  0  0
    0.8010    1.9314    0.0000 N   0  0  0  0  0  0  0  0  0  0  0  0
    2.3938    2.2473    0.0000 C   0  0  0  0  0  0  0  0  0  0  0  0
   -0.0915    0.5995    0.0000 C   0  0  0  0  0  0  0  0  0  0  0  0
   -3.6066   -0.1694    0.0000 C   0  0  0  0  0  0  0  0  0  0  0  0
    3.7348   -1.0024    0.0000 C   0  0  0  0  0  0  0  0  0  0  0  0
   -0.9016    0.7506    0.0000 N   0  0  0  0  0  0  0  0  0  0  0  0
    3.7348    1.3547    0.0000 C   0  0  0  0  0  0  0  0  0  0  0  0
   -5.5015   -1.2495    0.0000 C   0  0  0  0  0  0  0  0  0  0  0  0
   -4.9660   -0.6316    0.0000 N   0  0  0  0  0  0  0  0  0  0  0  0
   -4.1467   -0.7873    0.0000 C   0  0  0  0  0  0  0  0  0  0  0  0
    0.8010   -1.5837    0.0000 C   0  0  0  0  0  0  0  0  0  0  0  0
    0.2243   -1.0024    0.0000 S   0  0  0  0  0  0  0  0  0  0  0  0
    1.5699   -1.8995    0.0000 C   0  0  0  0  0  0  0  0  0  0  0  0
    1.5699    2.2473    0.0000 C   0  0  0  0  0  0  0  0  0  0  0  0
   -0.0915   -0.2380    0.0000 C   0  0  0  0  0  0  0  0  0  0  0  0
   -6.3116   -1.0894    0.0000 C   0  0  0  0  0  0  0  0  0  0  0  0
    3.6021   -2.2656    0.0000 O   0  0  0  0  0  0  0  0  0  0  0  0
   -1.1900   -0.6500    0.0000 O   0  0  0  0  0  0  0  0  0  0  0  0
   -0.4622    1.8079    0.0000 O   0  0  0  0  0  0  0  0  0  0  0  0
    4.6273    0.7506    0.0000 O   0  0  0  0  0  0  0  0  0  0  0  0
    2.5448    3.0574    0.0000 O   0  0  0  0  0  0  0  0  0  0  0  0
   -3.8721    0.6133    0.0000 O   0  0  0  0  0  0  0  0  0  0  0  0
    4.4214    1.8079    0.0000 C   0  0  0  0  0  0  0  0  0  0  0  0
   -5.2406   -2.0322    0.0000 O   0  0  0  0  0  0  0  0  0  0  0  0
    0.3479   -2.2656    0.0000 O   0  0  0  0  0  0  0  0  0  0  0  0
   -6.5725   -0.3067    0.0000 C   0  0  0  0  0  0  0  0  0  0  0  0
   -2.5128    1.0710    0.0000 C   0  0  0  0  0  0  0  0  0  0  0  0
    4.4214   -1.4601    0.0000 C   0  0  0  0  0  0  0  0  0  0  0  0
   -6.0233    0.3112    0.0000 C   0  0  0  0  0  0  0  0  0  0  0  0
   -6.8426   -1.7073    0.0000 N   0  0  0  0  0  0  0  0  0  0  0  0
    1.4052   -2.6959    0.0000 C   0  0  0  0  0  0  0  0  0  0  0  0
   -4.9431    1.5516    0.0000 C   0  0  0  0  0  0  0  0  0  0  0  0
    5.1537    1.4417    0.0000 C   0  0  0  0  0  0  0  0  0  0  0  0
    0.4577   -3.7760    0.0000 S   0  0  0  0  0  0  0  0  0  0  0  0
   -3.8859   -1.5699    0.0000 C   0  0  0  0  0  0  0  0  0  0  0  0
   -5.2178    0.1602    0.0000 C   0  0  0  0  0  0  0  0  0  0  0  0
   -6.2842    1.0939    0.0000 C   0  0  0  0  0  0  0  0  0  0  0  0
   -4.6914    0.7689    0.0000 C   0  0  0  0  0  0  0  0  0  0  0  0
   -5.7533    1.7118    0.0000 C   0  0  0  0  0  0  0  0  0  0  0  0
   -1.9726    1.6889    0.0000 O   0  0  0  0  0  0  0  0  0  0  0  0
   -4.3939    2.1786    0.0000 O   0  0  0  0  0  0  0  0  0  0  0  0
   -3.0757   -1.7347    0.0000 O   0  0  0  0  0  0  0  0  0  0  0  0
    1.4052    3.0574    0.0000 C   0  0  0  0  0  0  0  0  0  0  0  0
    0.6225   -2.9705    0.0000 C   0  0  0  0  0  0  0  0  0  0  0  0
    5.1537   -1.0894    0.0000 C   0  0  0  0  0  0  0  0  0  0  0  0
   -3.3229    1.2312    0.0000 C   0  0  0  0  0  0  0  0  0  0  0  0
   -0.3158   -4.0415    0.0000 C   0  0  0  0  0  0  0  0  0  0  0  0
    4.3573   -2.2840    0.0000 C   0  0  0  0  0  0  0  0  0  0  0  0
    5.2086    0.6179    0.0000 C   0  0  0  0  0  0  0  0  0  0  0  0
    5.8403    1.9040    0.0000 C   0  0  0  0  0  0  0  0  0  0  0  0
    2.0231    3.5975    0.0000 C   0  0  0  0  0  0  0  0  0  0  0  0
    5.8403   -1.5516    0.0000 C   0  0  0  0  0  0  0  0  0  0  0  0
    6.5817    1.5379    0.0000 C   0  0  0  0  0  0  0  0  0  0  0  0
    5.9501    0.2563    0.0000 C   0  0  0  0  0  0  0  0  0  0  0  0
    6.6367    0.7140    0.0000 C   0  0  0  0  0  0  0  0  0  0  0  0
    4.6899   -0.7063    0.0000 H   0  0  0  0  0  0  0  0  0  0  0  0
  2 14  1  0
  3  4  1  0
  4 15  1  0
  5 16  1  0
  6  2  1  0
  7 10  1  0
  8  1  1  0
  3  9  1  1
 10 23  1  0
 11  5  1  0
 12 24  1  0
 13  9  1  0
 14  1  1  0
 12 15  1  6
 16  8  1  0
 17 18  1  0
 19 18  1  6
 19 13  1  0
 20 22  1  0
 21 20  1  0
 22  6  1  0
 23 11  1  0
 24 21  1  0
 25 17  1  0
 26  2  2  0
 27  4  2  0
 28  7  2  0
 29  8  2  0
 30 11  2  0
 31 13  2  0
 16 32  1  6
 33 17  2  0
 34 20  2  0
 25 35  1  0
  3 36  1  0
 14 37  1  0
 38 35  1  0
 25 39  1  1
 22 40  1  6
 41 48  1  0
 42 32  1  0
 43 53  1  0
 19 44  1  0
 45 38  2  0
 46 38  1  0
 47 45  1  0
 48 46  2  0
 36 49  1  1
 50 41  1  0
 51 44  1  0
 23 52  1  1
 53 40  1  0
 54 37  1  0
 55 36  1  0
 56 43  1  0
 37 57  1  6
 58 42  2  0
 59 42  1  0
 60 52  1  0
 61 54  1  0
 62 59  2  0
 63 58  1  0
 64 62  1  0
 63 64  2  0
  7 12  1  0
 47 41  2  0
 14 65  1  6
M  END

> <chembl_id>
CHEMBL2371770

> <chembl_pref_name>
None

$$$$

     RDKit          2D

 63 65  0  0  0  0  0  0  0  0999 V2000
   -6.4385   -1.2408    0.0000 C   0  0  0  0  0  0  0  0  0  0  0  0
   -5.7195   -0.8251    0.0000 C   0  0  0  0  0  0  0  0  0  0  0  0
   -7.1554   -0.8251    0.0000 N   0  0  0  0  0  0  0  0  0  0  0  0
   -5.7195   -0.0022    0.0000 O   0  0  0  0  0  0  0  0  0  0  0  0
   -5.0070   -1.2408    0.0000 N   0  0  0  0  0  0  0  0  0  0  0  0
   -4.2903   -0.8251    0.0000 C   0  0  0  0  0  0  0  0  0  0  0  0
   -3.5777   -1.2408    0.0000 C   0  0  0  0  0  0  0  0  0  0  0  0
   -4.2903   -0.0022    0.0000 C   0  0  0  0  0  0  0  0  0  0  0  0
   -3.5777    0.4136    0.0000 O   0  0  0  0  0  0  0  0  0  0  0  0
   -6.4385   -2.0636    0.0000 C   0  0  0  0  0  0  0  0  0  0  0  0
   -5.7195   -2.4794    0.0000 C   0  0  0  0  0  0  0  0  0  0  0  0
   -5.7263   -3.3050    0.0000 C   0  0  0  0  0  0  0  0  0  0  0  0
   -5.0092   -3.7142    0.0000 C   0  0  0  0  0  0  0  0  0  0  0  0
   -4.2946   -3.3046    0.0000 C   0  0  0  0  0  0  0  0  0  0  0  0
   -4.3005   -2.4760    0.0000 C   0  0  0  0  0  0  0  0  0  0  0  0
   -5.0125   -2.0648    0.0000 C   0  0  0  0  0  0  0  0  0  0  0  0
   -3.5806   -3.7182    0.0000 O   0  0  0  0  0  0  0  0  0  0  0  0
   -3.5777   -2.0636    0.0000 O   0  0  0  0  0  0  0  0  0  0  0  0
   -2.8649   -0.8251    0.0000 N   0  0  0  0  0  0  0  0  0  0  0  0
   -2.1460   -1.2408    0.0000 C   0  0  0  0  0  0  0  0  0  0  0  0
   -1.4292   -0.8251    0.0000 C   0  0  0  0  0  0  0  0  0  0  0  0
   -2.1460   -2.0636    0.0000 C   0  0  0  0  0  0  0  0  0  0  0  0
   -2.8649   -2.4794    0.0000 C   0  0  0  0  0  0  0  0  0  0  0  0
   -1.4292   -2.4794    0.0000 O   0  0  0  0  0  0  0  0  0  0  0  0
   -0.7168   -1.2408    0.0000 N   0  0  0  0  0  0  0  0  0  0  0  0
   -1.4292   -0.0022    0.0000 O   0  0  0  0  0  0  0  0  0  0  0  0
    0.0001   -0.8251    0.0000 C   0  0  0  0  0  0  0  0  0  0  0  0
    0.7191   -1.2408    0.0000 C   0  0  0  0  0  0  0  0  0  0  0  0
    1.4317   -0.8251    0.0000 N   0  0  0  0  0  0  0  0  0  0  0  0
    0.7191   -2.0636    0.0000 O   0  0  0  0  0  0  0  0  0  0  0  0
    0.0001   -0.0022    0.0000 C   0  0  0  0  0  0  0  0  0  0  0  0
    0.7191    0.4136    0.0000 S   0  0  0  0  0  0  0  0  0  0  0  0
    0.7191    1.2367    0.0000 C   0  0  0  0  0  0  0  0  0  0  0  0
    1.4317    1.6523    0.0000 C   0  0  0  0  0  0  0  0  0  0  0  0
    0.0001    1.6523    0.0000 O   0  0  0  0  0  0  0  0  0  0  0  0
    2.1444    1.2367    0.0000 N   0  0  0  0  0  0  0  0  0  0  0  0
    1.4317    2.4753    0.0000 C   0  0  0  0  0  0  0  0  0  0  0  0
    2.1444    2.8909    0.0000 S   0  0  0  0  0  0  0  0  0  0  0  0
    2.1444    3.7182    0.0000 C   0  0  0  0  0  0  0  0  0  0  0  0
    2.8612    1.6523    0.0000 C   0  0  0  0  0  0  0  0  0  0  0  0
    3.5801    1.2367    0.0000 C   0  0  0  0  0  0  0  0  0  0  0  0
    2.8612    2.4753    0.0000 O   0  0  0  0  0  0  0  0  0  0  0  0
    3.5801    0.4136    0.0000 N   0  0  0  0  0  0  0  0  0  0  0  0
    4.2926    1.6523    0.0000 C   0  0  0  0  0  0  0  0  0  0  0  0
    5.0052    1.2367    0.0000 C   0  0  0  0  0  0  0  0  0  0  0  0
    4.2926    2.4753    0.0000 C   0  0  0  0  0  0  0  0  0  0  0  0
    5.0052    2.8909    0.0000 C   0  0  0  0  0  0  0  0  0  0  0  0
    4.2926   -0.0022    0.0000 C   0  0  0  0  0  0  0  0  0  0  0  0
    4.2926   -0.8251    0.0000 C   0  0  0  0  0  0  0  0  0  0  0  0
    5.0052    0.4136    0.0000 O   0  0  0  0  0  0  0  0  0  0  0  0
    5.0052   -1.2408    0.0000 C   0  0  0  0  0  0  0  0  0  0  0  0
    5.7284   -0.8251    0.0000 C   0  0  0  0  0  0  0  0  0  0  0  0
    6.4398   -1.2417    0.0000 C   0  0  0  0  0  0  0  0  0  0  0  0
    7.1554   -0.8296    0.0000 C   0  0  0  0  0  0  0  0  0  0  0  0
    7.1523   -0.0025    0.0000 C   0  0  0  0  0  0  0  0  0  0  0  0
    6.4323    0.4108    0.0000 C   0  0  0  0  0  0  0  0  0  0  0  0
    5.7234   -0.0025    0.0000 C   0  0  0  0  0  0  0  0  0  0  0  0
    2.1444   -1.2408    0.0000 C   0  0  0  0  0  0  0  0  0  0  0  0
    2.8612   -0.8251    0.0000 C   0  0  0  0  0  0  0  0  0  0  0  0
    3.5801   -1.2408    0.0000 N   0  0  0  0  0  0  0  0  0  0  0  0
    2.8612   -0.0022    0.0000 O   0  0  0  0  0  0  0  0  0  0  0  0
    2.1444   -2.0636    0.0000 C   0  0  0  0  0  0  0  0  0  0  0  0
    3.6264    2.0626    0.0000 H   0  0  0  0  0  0  0  0  0  0  0  0
  1  2  1  0
  1  3  1  0
  2  4  2  0
  2  5  1  0
  5  6  1  0
  6  7  1  0
  6  8  1  1
  8  9  1  0
  1 10  1  6
 10 11  1  0
 11 12  2  0
 12 13  1  0
 13 14  2  0
 14 15  1  0
 15 16  2  0
 16 11  1  0
 14 17  1  0
  7 18  2  0
  7 19  1  0
 20 19  1  6
 20 21  1  0
 20 22  1  0
 22 23  1  0
 22 24  1  6
 21 25  1  0
 21 26  2  0
 27 25  1  1
 27 28  1  0
 28 29  1  0
 28 30  2  0
 27 31  1  0
 31 32  1  0
 32 33  1  0
 33 34  1  0
 33 35  2  0
 34 36  1  0
 34 37  1  6
 37 38  1  0
 38 39  1  0
 36 40  1  0
 40 41  1  0
 40 42  2  0
 41 43  1  0
 41 44  1  0
 44 45  1  6
 44 46  1  0
 46 47  1  0
 43 48  1  0
 48 49  1  0
 48 50  2  0
 49 60  1  0
 49 51  1  6
 51 52  1  0
 52 53  2  0
 53 54  1  0
 54 55  2  0
 55 56  1  0
 56 57  2  0
 57 52  1  0
 29 58  1  0
 58 59  1  0
 59 60  1  0
 59 61  2  0
 58 62  1  6
 41 63  1  1
M  END

> <chembl_id>
CHEMBL1824155

> <chembl_pref_name>
None

$$$$

     RDKit          2D

 70 73  0  0  1  0  0  0  0  0999 V2000
   12.8708    2.1522    0.0000 N   0  0  0  0  0  0  0  0  0  0  0  0
   11.9647    0.8056    0.0000 C   0  0  0  0  0  0  0  0  0  0  0  0
    6.8360    4.0848    0.0000 C   0  0  0  0  0  0  0  0  0  0  0  0
    7.6464    3.9227    0.0000 C   0  0  0  0  0  0  0  0  0  0  0  0
   11.9647    4.3217    0.0000 N   0  0  0  0  0  0  0  0  0  0  0  0
   11.2042    0.4939    0.0000 N   0  0  0  0  0  0  0  0  0  0  0  0
    9.0346    3.7482    0.0000 C   0  0  0  0  0  0  0  0  0  0  0  0
   12.8708    2.9876    0.0000 C   0  0  0  0  0  0  0  0  0  0  0  0
    6.2916    3.4614    0.0000 N   0  0  0  0  0  0  0  0  0  0  0  0
    9.6165    4.3217    0.0000 N   0  0  0  0  0  0  0  0  0  0  0  0
   11.2042    4.6459    0.0000 C   0  0  0  0  0  0  0  0  0  0  0  0
    8.7187    2.9876    0.0000 C   0  0  0  0  0  0  0  0  0  0  0  0
    5.4811    3.6235    0.0000 C   0  0  0  0  0  0  0  0  0  0  0  0
   12.5466    1.3916    0.0000 C   0  0  0  0  0  0  0  0  0  0  0  0
    7.9083    3.1372    0.0000 N   0  0  0  0  0  0  0  0  0  0  0  0
   12.5466    3.7482    0.0000 C   0  0  0  0  0  0  0  0  0  0  0  0
    9.6165    0.8056    0.0000 C   0  0  0  0  0  0  0  0  0  0  0  0
    9.0346    1.3916    0.0000 S   0  0  0  0  0  0  0  0  0  0  0  0
    4.9408    3.0001    0.0000 C   0  0  0  0  0  0  0  0  0  0  0  0
   10.3812    0.4939    0.0000 C   0  0  0  0  0  0  0  0  0  0  0  0
   10.3812    4.6459    0.0000 C   0  0  0  0  0  0  0  0  0  0  0  0
    4.1303    3.1621    0.0000 N   0  0  0  0  0  0  0  0  0  0  0  0
    8.7187    2.1522    0.0000 C   0  0  0  0  0  0  0  0  0  0  0  0
    3.5859    2.5512    0.0000 C   0  0  0  0  0  0  0  0  0  0  0  0
   12.4219    0.1323    0.0000 O   0  0  0  0  0  0  0  0  0  0  0  0
    8.0205    4.6833    0.0000 O   0  0  0  0  0  0  0  0  0  0  0  0
    8.3489    4.1970    0.0000 O   0  0  0  0  0  0  0  0  0  0  0  0
   13.6812    3.1372    0.0000 O   0  0  0  0  0  0  0  0  0  0  0  0
   11.3663    5.4564    0.0000 O   0  0  0  0  0  0  0  0  0  0  0  0
    5.2193    4.4090    0.0000 O   0  0  0  0  0  0  0  0  0  0  0  0
   13.2365    4.1970    0.0000 C   0  0  0  0  0  0  0  0  0  0  0  0
    9.1593    0.1323    0.0000 O   0  0  0  0  0  0  0  0  0  0  0  0
    6.5741    4.8703    0.0000 C   0  0  0  0  0  0  0  0  0  0  0  0
    3.8560    1.7657    0.0000 O   0  0  0  0  0  0  0  0  0  0  0  0
   13.2365    0.9303    0.0000 C   0  0  0  0  0  0  0  0  0  0  0  0
   10.2191   -0.3166    0.0000 C   0  0  0  0  0  0  0  0  0  0  0  0
   -0.9818    4.9077    0.0000 C   0  0  0  0  0  0  0  0  0  0  0  0
   -1.7881    5.0698    0.0000 C   0  0  0  0  0  0  0  0  0  0  0  0
    0.6308    4.5836    0.0000 C   0  0  0  0  0  0  0  0  0  0  0  0
   13.1825    5.0200    0.0000 C   0  0  0  0  0  0  0  0  0  0  0  0
   10.6680   -1.6632    0.0000 S   0  0  0  0  0  0  0  0  0  0  0  0
    5.2026    2.2270    0.0000 C   0  0  0  0  0  0  0  0  0  0  0  0
   -0.7075    4.1222    0.0000 C   0  0  0  0  0  0  0  0  0  0  0  0
   -0.4332    5.5187    0.0000 C   0  0  0  0  0  0  0  0  0  0  0  0
    0.0947    3.9601    0.0000 C   0  0  0  0  0  0  0  0  0  0  0  0
    0.3690    5.3691    0.0000 C   0  0  0  0  0  0  0  0  0  0  0  0
   -2.3284    4.4464    0.0000 C   0  0  0  0  0  0  0  0  0  0  0  0
    7.1145    5.4813    0.0000 O   0  0  0  0  0  0  0  0  0  0  0  0
    1.4371    4.4215    0.0000 O   0  0  0  0  0  0  0  0  0  0  0  0
    4.6582    1.6036    0.0000 O   0  0  0  0  0  0  0  0  0  0  0  0
    2.7754    2.7133    0.0000 C   0  0  0  0  0  0  0  0  0  0  0  0
   10.2191    5.4564    0.0000 C   0  0  0  0  0  0  0  0  0  0  0  0
   10.8384   -0.8527    0.0000 C   0  0  0  0  0  0  0  0  0  0  0  0
   13.9805    1.3043    0.0000 C   0  0  0  0  0  0  0  0  0  0  0  0
    5.7637    5.0324    0.0000 C   0  0  0  0  0  0  0  0  0  0  0  0
   11.2997   -2.2118    0.0000 C   0  0  0  0  0  0  0  0  0  0  0  0
   13.1825    0.1074    0.0000 C   0  0  0  0  0  0  0  0  0  0  0  0
    1.7031    3.6484    0.0000 C   0  0  0  0  0  0  0  0  0  0  0  0
   12.4468    5.3940    0.0000 C   0  0  0  0  0  0  0  0  0  0  0  0
   13.8682    5.4813    0.0000 C   0  0  0  0  0  0  0  0  0  0  0  0
   -3.1347    4.6085    0.0000 C   0  0  0  0  0  0  0  0  0  0  0  0
   -2.0541    3.6734    0.0000 C   0  0  0  0  0  0  0  0  0  0  0  0
    2.5094    3.4863    0.0000 C   0  0  0  0  0  0  0  0  0  0  0  0
   14.6662    0.8430    0.0000 C   0  0  0  0  0  0  0  0  0  0  0  0
   13.8184    6.3042    0.0000 C   0  0  0  0  0  0  0  0  0  0  0  0
   -3.6750    3.9851    0.0000 C   0  0  0  0  0  0  0  0  0  0  0  0
   -2.5985    3.0499    0.0000 C   0  0  0  0  0  0  0  0  0  0  0  0
   12.3845    6.2169    0.0000 C   0  0  0  0  0  0  0  0  0  0  0  0
   13.0744    6.6658    0.0000 C   0  0  0  0  0  0  0  0  0  0  0  0
   -3.4090    3.2120    0.0000 C   0  0  0  0  0  0  0  0  0  0  0  0
  2 14  1  0
  3  4  1  0
  4 15  1  0
  5 16  1  0
  6  2  1  0
  7 10  1  0
  8  1  1  0
  3  9  1  1
 10 21  1  0
 11  5  1  0
 12 23  1  0
 13  9  1  0
 14  1  1  0
 12 15  1  1
 16  8  1  0
 17 20  1  0
 18 17  1  0
 19 13  1  0
 20  6  1  0
 21 11  1  0
 19 22  1  0
 23 18  1  0
 24 22  1  0
 25  2  2  0
 26  4  2  0
 27  7  2  0
 28  8  2  0
 29 11  2  0
 30 13  2  0
 16 31  1  6
 32 17  2  0
  3 33  1  0
 34 24  2  0
 14 35  1  1
 20 36  1  1
 37 44  2  0
 38 37  1  0
 39 49  1  0
 40 31  1  0
 41 53  1  0
 19 42  1  6
 43 45  2  0
 44 46  1  0
 45 39  1  0
 46 39  2  0
 47 38  1  0
 33 48  1  1
 49 58  1  0
 50 42  1  0
 51 24  1  0
 21 52  1  1
 53 36  1  0
 54 35  1  0
 55 33  1  0
 56 41  1  0
 35 57  1  6
 58 63  1  0
 59 40  2  0
 60 40  1  0
 61 47  2  0
 62 47  1  0
 63 51  1  0
 64 54  1  0
 65 60  2  0
 66 61  1  0
 67 62  2  0
 68 59  1  0
 69 65  1  0
 70 67  1  0
 69 68  2  0
 12  7  1  0
 37 43  1  0
 70 66  2  0
M  END

> <chembl_id>
CHEMBL3085465

> <chembl_pref_name>
None

$$$$

     RDKit          2D

 64 66  0  0  1  0  0  0  0  0999 V2000
    3.5917   -0.6375    0.0000 N   0  0  0  0  0  0  0  0  0  0  0  0
    2.6375   -1.7250    0.0000 C   0  0  0  0  0  0  0  0  0  0  0  0
   -1.9333    0.5625    0.0000 C   0  0  0  0  0  0  0  0  0  0  0  0
   -1.2333    0.3333    0.0000 C   0  0  0  0  0  0  0  0  0  0  0  0
    3.0500    1.3875    0.0000 N   0  0  0  0  0  0  0  0  0  0  0  0
    1.9250   -1.9125    0.0000 N   0  0  0  0  0  0  0  0  0  0  0  0
    0.3792    1.2208    0.0000 C   0  0  0  0  0  0  0  0  0  0  0  0
    3.6917    0.0958    0.0000 C   0  0  0  0  0  0  0  0  0  0  0  0
   -2.4833    0.0833    0.0000 N   0  0  0  0  0  0  0  0  0  0  0  0
    0.9667    1.6708    0.0000 N   0  0  0  0  0  0  0  0  0  0  0  0
    2.4167    1.7583    0.0000 C   0  0  0  0  0  0  0  0  0  0  0  0
    0.0167    0.5833    0.0000 C   0  0  0  0  0  0  0  0  0  0  0  0
   -3.1833    0.3125    0.0000 C   0  0  0  0  0  0  0  0  0  0  0  0
    3.2167   -1.2667    0.0000 C   0  0  0  0  0  0  0  0  0  0  0  0
   -0.6833    0.8125    0.0000 N   0  0  0  0  0  0  0  0  0  0  0  0
    3.4917    0.8000    0.0000 C   0  0  0  0  0  0  0  0  0  0  0  0
   -4.9875   -0.4167    0.0000 C   0  0  0  0  0  0  0  0  0  0  0  0
   -4.4333    0.0625    0.0000 N   0  0  0  0  0  0  0  0  0  0  0  0
   -3.7333   -0.1667    0.0000 C   0  0  0  0  0  0  0  0  0  0  0  0
    0.5625   -1.4500    0.0000 C   0  0  0  0  0  0  0  0  0  0  0  0
    0.1125   -0.8667    0.0000 S   0  0  0  0  0  0  0  0  0  0  0  0
    1.2000   -1.8167    0.0000 C   0  0  0  0  0  0  0  0  0  0  0  0
    1.6792    1.8583    0.0000 C   0  0  0  0  0  0  0  0  0  0  0  0
   -0.0833   -0.1542    0.0000 C   0  0  0  0  0  0  0  0  0  0  0  0
   -5.6833   -0.1792    0.0000 C   0  0  0  0  0  0  0  0  0  0  0  0
    2.9667   -2.3792    0.0000 O   0  0  0  0  0  0  0  0  0  0  0  0
   -1.0958   -0.3917    0.0000 O   0  0  0  0  0  0  0  0  0  0  0  0
   -0.1708    1.7000    0.0000 O   0  0  0  0  0  0  0  0  0  0  0  0
    4.4250    0.1458    0.0000 O   0  0  0  0  0  0  0  0  0  0  0  0
    2.6500    2.4583    0.0000 O   0  0  0  0  0  0  0  0  0  0  0  0
   -3.3208    1.0375    0.0000 O   0  0  0  0  0  0  0  0  0  0  0  0
    4.1500    1.1333    0.0000 C   0  0  0  0  0  0  0  0  0  0  0  0
   -4.8458   -1.1375    0.0000 O   0  0  0  0  0  0  0  0  0  0  0  0
    0.0792   -2.0000    0.0000 O   0  0  0  0  0  0  0  0  0  0  0  0
   -5.8333    0.5458    0.0000 C   0  0  0  0  0  0  0  0  0  0  0  0
   -2.0708    1.2875    0.0000 C   0  0  0  0  0  0  0  0  0  0  0  0
    3.7792   -1.7542    0.0000 C   0  0  0  0  0  0  0  0  0  0  0  0
   -5.2833    1.0250    0.0000 C   0  0  0  0  0  0  0  0  0  0  0  0
   -6.2292   -0.6667    0.0000 N   0  0  0  0  0  0  0  0  0  0  0  0
    0.9542   -2.5167    0.0000 C   0  0  0  0  0  0  0  0  0  0  0  0
   -4.1708    1.9958    0.0000 C   0  0  0  0  0  0  0  0  0  0  0  0
    4.7667    0.7208    0.0000 C   0  0  0  0  0  0  0  0  0  0  0  0
    0.0000   -3.3542    0.0000 S   0  0  0  0  0  0  0  0  0  0  0  0
   -3.5958   -0.8917    0.0000 C   0  0  0  0  0  0  0  0  0  0  0  0
   -5.4208    1.7458    0.0000 C   0  0  0  0  0  0  0  0  0  0  0  0
   -4.5833    0.7875    0.0000 C   0  0  0  0  0  0  0  0  0  0  0  0
   -4.8625    2.2333    0.0000 C   0  0  0  0  0  0  0  0  0  0  0  0
   -4.0208    1.2833    0.0000 C   0  0  0  0  0  0  0  0  0  0  0  0
   -1.5208    1.7708    0.0000 O   0  0  0  0  0  0  0  0  0  0  0  0
   -3.6083    2.4833    0.0000 O   0  0  0  0  0  0  0  0  0  0  0  0
   -2.8958   -1.1250    0.0000 O   0  0  0  0  0  0  0  0  0  0  0  0
    1.6375    2.5958    0.0000 C   0  0  0  0  0  0  0  0  0  0  0  0
    0.2375   -2.6542    0.0000 C   0  0  0  0  0  0  0  0  0  0  0  0
    4.4750   -1.5167    0.0000 C   0  0  0  0  0  0  0  0  0  0  0  0
   -2.7708    1.5208    0.0000 C   0  0  0  0  0  0  0  0  0  0  0  0
   -0.7208   -3.5000    0.0000 C   0  0  0  0  0  0  0  0  0  0  0  0
    3.6375   -2.4792    0.0000 C   0  0  0  0  0  0  0  0  0  0  0  0
    4.7167   -0.0167    0.0000 C   0  0  0  0  0  0  0  0  0  0  0  0
    5.4292    1.0458    0.0000 C   0  0  0  0  0  0  0  0  0  0  0  0
    5.0292   -2.0042    0.0000 C   0  0  0  0  0  0  0  0  0  0  0  0
    5.3375   -0.4250    0.0000 C   0  0  0  0  0  0  0  0  0  0  0  0
    6.0417    0.6458    0.0000 C   0  0  0  0  0  0  0  0  0  0  0  0
    6.0000   -0.0917    0.0000 C   0  0  0  0  0  0  0  0  0  0  0  0
    4.2040   -1.1078    0.0000 H   0  0  0  0  0  0  0  0  0  0  0  0
  2 14  1  0
  3  4  1  0
  4 15  1  0
  5 16  1  0
  6  2  1  0
  7 10  1  0
  8  1  1  0
  3  9  1  1
 10 23  1  0
 11  5  1  0
 12 24  1  0
 13  9  1  0
 14  1  1  0
 12 15  1  6
 16  8  1  0
 17 18  1  0
 19 18  1  6
 19 13  1  0
 20 22  1  0
 21 20  1  0
 22  6  1  0
 23 11  1  0
 24 21  1  0
 25 17  1  0
 26  2  2  0
 27  4  2  0
 28  7  2  0
 29  8  2  0
 30 11  2  0
 31 13  2  0
 16 32  1  1
 33 17  2  0
 34 20  2  0
 25 35  1  0
  3 36  1  0
 14 37  1  0
 38 35  1  0
 25 39  1  1
 22 40  1  6
 41 48  2  0
 42 32  1  0
 43 53  1  0
 19 44  1  0
 45 38  1  0
 46 38  2  0
 47 45  2  0
 48 46  1  0
 36 49  1  1
 50 41  1  0
 51 44  1  0
 23 52  1  1
 53 40  1  0
 54 37  1  0
 55 36  1  0
 56 43  1  0
 37 57  1  6
 58 42  2  0
 59 42  1  0
 60 54  1  0
 61 58  1  0
 62 59  2  0
 63 62  1  0
 61 63  2  0
  7 12  1  0
 47 41  1  0
 14 64  1  6
M  END

> <chembl_id>
CHEMBL182551

> <chembl_pref_name>
None

$$$$

     RDKit          2D

 45 46  0  0  0  0  0  0  0  0999 V2000
    3.5586  -12.2312    0.0000 C   0  0  0  0  0  0  0  0  0  0  0  0
    4.2745  -11.8145    0.0000 C   0  0  0  0  0  0  0  0  0  0  0  0
    4.9862  -12.2312    0.0000 N   0  0  0  0  0  0  0  0  0  0  0  0
    4.2745  -10.9895    0.0000 C   0  0  0  0  0  0  0  0  0  0  0  0
    3.5586  -10.5770    0.0000 C   0  0  0  0  0  0  0  0  0  0  0  0
    3.5586   -9.7520    0.0000 S   0  0  0  0  0  0  0  0  0  0  0  0
    2.8427   -9.3395    0.0000 C   0  0  0  0  0  0  0  0  0  0  0  0
    2.8427  -11.8145    0.0000 O   0  0  0  0  0  0  0  0  0  0  0  0
    3.5586  -13.0562    0.0000 S   0  0  0  0  0  0  0  0  0  0  0  0
    2.8427  -13.4687    0.0000 C   0  0  0  0  0  0  0  0  0  0  0  0
    2.8427  -14.2937    0.0000 C   0  0  0  0  0  0  0  0  0  0  0  0
    2.1269  -14.7062    0.0000 N   0  0  0  0  0  0  0  0  0  0  0  0
    3.5586  -14.7062    0.0000 C   0  0  0  0  0  0  0  0  0  0  0  0
    3.5586  -15.5312    0.0000 O   0  0  0  0  0  0  0  0  0  0  0  0
    4.2745  -14.2937    0.0000 N   0  0  0  0  0  0  0  0  0  0  0  0
    4.9862  -14.7062    0.0000 C   0  0  0  0  0  0  0  0  0  0  0  0
    5.7020  -14.2937    0.0000 C   0  0  0  0  0  0  0  0  0  0  0  0
    4.9862  -15.5312    0.0000 C   0  0  0  0  0  0  0  0  0  0  0  0
    5.7020  -15.9437    0.0000 C   0  0  0  0  0  0  0  0  0  0  0  0
    5.7012  -16.7683    0.0000 O   0  0  0  0  0  0  0  0  0  0  0  0
    6.4171  -15.5308    0.0000 O   0  0  0  0  0  0  0  0  0  0  0  0
    6.4137  -14.7062    0.0000 N   0  0  0  0  0  0  0  0  0  0  0  0
    5.7020  -13.4687    0.0000 O   0  0  0  0  0  0  0  0  0  0  0  0
    7.1296  -14.2937    0.0000 C   0  0  0  0  0  0  0  0  0  0  0  0
    7.8454  -14.7062    0.0000 C   0  0  0  0  0  0  0  0  0  0  0  0
    7.1296  -13.4687    0.0000 C   0  0  0  0  0  0  0  0  0  0  0  0
    7.8454  -15.5312    0.0000 C   0  0  0  0  0  0  0  0  0  0  0  0
    7.1266  -15.9417    0.0000 C   0  0  0  0  0  0  0  0  0  0  0  0
    7.1260  -16.7656    0.0000 C   0  0  0  0  0  0  0  0  0  0  0  0
    7.8427  -17.1793    0.0000 C   0  0  0  0  0  0  0  0  0  0  0  0
    8.5580  -16.7601    0.0000 C   0  0  0  0  0  0  0  0  0  0  0  0
    8.5574  -15.9383    0.0000 C   0  0  0  0  0  0  0  0  0  0  0  0
    7.8454  -13.0562    0.0000 O   0  0  0  0  0  0  0  0  0  0  0  0
    5.7020  -11.8145    0.0000 C   0  0  0  0  0  0  0  0  0  0  0  0
    6.4137  -12.2312    0.0000 C   0  0  0  0  0  0  0  0  0  0  0  0
    5.7020  -10.9895    0.0000 O   0  0  0  0  0  0  0  0  0  0  0  0
    7.1296  -11.8145    0.0000 C   0  0  0  0  0  0  0  0  0  0  0  0
    6.4059  -13.0499    0.0000 N   0  0  0  0  0  0  0  0  0  0  0  0
    7.8454  -12.2312    0.0000 C   0  0  0  0  0  0  0  0  0  0  0  0
    7.1296  -10.9895    0.0000 C   0  0  0  0  0  0  0  0  0  0  0  0
    7.8454  -10.5770    0.0000 C   0  0  0  0  0  0  0  0  0  0  0  0
    1.4152  -14.2937    0.0000 C   0  0  0  0  0  0  0  0  0  0  0  0
    0.6993  -14.7062    0.0000 C   0  0  0  0  0  0  0  0  0  0  0  0
    1.4152  -13.4687    0.0000 O   0  0  0  0  0  0  0  0  0  0  0  0
    7.2782  -12.7338    0.0000 H   0  0  0  0  0  0  0  0  0  0  0  0
  1  2  1  0
  2  3  1  0
  2  4  1  6
  4  5  1  0
  5  6  1  0
  6  7  1  0
  1  8  2  0
  1  9  1  0
  9 10  1  0
 10 11  1  0
 11 12  1  1
 11 13  1  0
 13 14  2  0
 13 15  1  0
 15 16  1  0
 16 17  1  0
 16 18  1  6
 18 19  1  0
 19 20  1  0
 19 21  2  0
 17 22  1  0
 17 23  2  0
 22 24  1  0
 24 25  1  6
 24 26  1  0
 25 27  1  0
 27 28  2  0
 28 29  1  0
 29 30  2  0
 30 31  1  0
 31 32  2  0
 32 27  1  0
 26 33  2  0
 26 38  1  0
  3 34  1  0
 35 34  1  0
 34 36  2  0
 35 37  1  0
 35 38  1  0
 37 39  1  6
 37 40  1  0
 40 41  1  0
 12 42  1  0
 42 43  1  0
 42 44  2  0
 35 45  1  1
M  END

> <chembl_id>
CHEMBL2337556

> <chembl_pref_name>
None

$$$$

     RDKit          2D

 69 68  0  0  1  0  0  0  0  0999 V2000
    5.5042   -2.0375    0.0000 C   0  0  0  0  0  0  0  0  0  0  0  0
    4.0792   -2.0375    0.0000 N   0  0  0  0  0  0  0  0  0  0  0  0
   10.5042   -2.4542    0.0000 N   0  0  0  0  0  0  0  0  0  0  0  0
    9.7917   -2.0417    0.0000 C   0  0  0  0  0  0  0  0  0  0  0  0
    3.3750   -2.4542    0.0000 C   0  0  0  0  0  0  0  0  0  0  0  0
    7.6500   -2.4542    0.0000 C   0  0  0  0  0  0  0  0  0  0  0  0
    1.2292   -2.0542    0.0000 C   0  0  0  0  0  0  0  0  0  0  0  0
   -0.9125   -2.4792    0.0000 C   0  0  0  0  0  0  0  0  0  0  0  0
    6.2167   -2.4542    0.0000 N   0  0  0  0  0  0  0  0  0  0  0  0
    1.9417   -2.4667    0.0000 N   0  0  0  0  0  0  0  0  0  0  0  0
    8.3667   -2.0417    0.0000 N   0  0  0  0  0  0  0  0  0  0  0  0
   -0.2000   -2.0625    0.0000 N   0  0  0  0  0  0  0  0  0  0  0  0
    4.7917   -2.4500    0.0000 C   0  0  0  0  0  0  0  0  0  0  0  0
    6.9375   -2.0417    0.0000 C   0  0  0  0  0  0  0  0  0  0  0  0
   11.2167   -2.0417    0.0000 C   0  0  0  0  0  0  0  0  0  0  0  0
    6.9417   -1.2167    0.0000 C   0  0  0  0  0  0  0  0  0  0  0  0
   -3.0583   -2.0792    0.0000 C   0  0  0  0  0  0  0  0  0  0  0  0
    9.0792   -2.4542    0.0000 C   0  0  0  0  0  0  0  0  0  0  0  0
    2.6542   -2.0500    0.0000 C   0  0  0  0  0  0  0  0  0  0  0  0
    0.5167   -2.4667    0.0000 C   0  0  0  0  0  0  0  0  0  0  0  0
   11.9292   -2.4417    0.0000 C   0  0  0  0  0  0  0  0  0  0  0  0
   -2.3458   -2.4875    0.0000 N   0  0  0  0  0  0  0  0  0  0  0  0
    7.6542   -0.8042    0.0000 C   0  0  0  0  0  0  0  0  0  0  0  0
   -1.6333   -2.0667    0.0000 C   0  0  0  0  0  0  0  0  0  0  0  0
   -3.7708   -2.4917    0.0000 C   0  0  0  0  0  0  0  0  0  0  0  0
   -0.9250   -0.0042    0.0000 C   0  0  0  0  0  0  0  0  0  0  0  0
   15.5000   -2.0042    0.0000 C   0  0  0  0  0  0  0  0  0  0  0  0
    5.5125   -1.2125    0.0000 O   0  0  0  0  0  0  0  0  0  0  0  0
    9.7917   -1.2167    0.0000 O   0  0  0  0  0  0  0  0  0  0  0  0
    3.3792   -3.2792    0.0000 O   0  0  0  0  0  0  0  0  0  0  0  0
    7.6500   -3.2792    0.0000 O   0  0  0  0  0  0  0  0  0  0  0  0
    1.2250   -1.2292    0.0000 O   0  0  0  0  0  0  0  0  0  0  0  0
   -0.9083   -3.3042    0.0000 O   0  0  0  0  0  0  0  0  0  0  0  0
   -3.0625   -1.2542    0.0000 O   0  0  0  0  0  0  0  0  0  0  0  0
   11.9375   -3.2667    0.0000 O   0  0  0  0  0  0  0  0  0  0  0  0
    0.5167   -3.2917    0.0000 C   0  0  0  0  0  0  0  0  0  0  0  0
    9.0750   -3.2792    0.0000 C   0  0  0  0  0  0  0  0  0  0  0  0
    2.6500   -1.2250    0.0000 C   0  0  0  0  0  0  0  0  0  0  0  0
    8.3667   -1.2167    0.0000 O   0  0  0  0  0  0  0  0  0  0  0  0
   -1.6458    0.4083    0.0000 O   0  0  0  0  0  0  0  0  0  0  0  0
   15.4917   -1.1792    0.0000 O   0  0  0  0  0  0  0  0  0  0  0  0
   -1.6333   -1.2417    0.0000 C   0  0  0  0  0  0  0  0  0  0  0  0
   12.6417   -2.0292    0.0000 S   0  0  0  0  0  0  0  0  0  0  0  0
   14.7917   -2.4167    0.0000 N   0  0  0  0  0  0  0  0  0  0  0  0
    4.7917   -3.2750    0.0000 C   0  0  0  0  0  0  0  0  0  0  0  0
   -0.9208   -0.8292    0.0000 C   0  0  0  0  0  0  0  0  0  0  0  0
   11.2042   -1.2167    0.0000 C   0  0  0  0  0  0  0  0  0  0  0  0
   -0.2125    0.4125    0.0000 N   0  0  0  0  0  0  0  0  0  0  0  0
    7.6542    0.0208    0.0000 O   0  0  0  0  0  0  0  0  0  0  0  0
   -4.4833   -2.0875    0.0000 C   0  0  0  0  0  0  0  0  0  0  0  0
   -4.4875   -1.2625    0.0000 O   0  0  0  0  0  0  0  0  0  0  0  0
    9.7917   -3.6917    0.0000 C   0  0  0  0  0  0  0  0  0  0  0  0
    1.2375   -3.7042    0.0000 C   0  0  0  0  0  0  0  0  0  0  0  0
    3.3625   -0.8042    0.0000 C   0  0  0  0  0  0  0  0  0  0  0  0
   16.2167   -2.4042    0.0000 C   0  0  0  0  0  0  0  0  0  0  0  0
   13.3625   -2.4292    0.0000 C   0  0  0  0  0  0  0  0  0  0  0  0
   14.0667   -2.0167    0.0000 C   0  0  0  0  0  0  0  0  0  0  0  0
   11.9167   -0.7917    0.0000 C   0  0  0  0  0  0  0  0  0  0  0  0
    4.0750   -3.6792    0.0000 C   0  0  0  0  0  0  0  0  0  0  0  0
    5.5042   -3.6875    0.0000 C   0  0  0  0  0  0  0  0  0  0  0  0
   10.4875   -0.8042    0.0000 C   0  0  0  0  0  0  0  0  0  0  0  0
   -5.1958   -2.5000    0.0000 C   0  0  0  0  0  0  0  0  0  0  0  0
    4.0792   -1.2125    0.0000 C   0  0  0  0  0  0  0  0  0  0  0  0
    1.2417   -4.5292    0.0000 C   0  0  0  0  0  0  0  0  0  0  0  0
    9.7917   -4.5167    0.0000 C   0  0  0  0  0  0  0  0  0  0  0  0
   10.5042   -3.2792    0.0000 C   0  0  0  0  0  0  0  0  0  0  0  0
    1.9500   -3.2917    0.0000 C   0  0  0  0  0  0  0  0  0  0  0  0
    3.3542    0.0208    0.0000 C   0  0  0  0  0  0  0  0  0  0  0  0
   11.9125    0.0333    0.0000 C   0  0  0  0  0  0  0  0  0  0  0  0
 13  2  1  6
  3  4  1  0
  4 18  1  0
  5  2  1  0
  6 14  1  0
  7 10  1  0
  8 12  1  0
  9  1  1  0
 19 10  1  6
 11  6  1  0
 20 12  1  6
 13  1  1  0
 14  9  1  1
 15  3  1  1
 14 16  1  0
 17 22  1  0
 18 11  1  1
 19  5  1  0
 20  7  1  0
 21 15  1  0
 24 22  1  1
 23 16  1  0
 24  8  1  0
 25 17  1  0
 26 46  1  0
 27 44  1  0
 28  1  2  0
 29  4  2  0
 30  5  2  0
 31  6  2  0
 32  7  2  0
 33  8  2  0
 34 17  2  0
 35 21  2  0
 20 36  1  0
 18 37  1  0
 19 38  1  0
 39 23  2  0
 40 26  2  0
 41 27  2  0
 24 42  1  0
 43 21  1  0
 44 57  1  0
 13 45  1  0
 46 42  1  0
 15 47  1  0
 48 26  1  0
 49 23  1  0
 50 25  1  0
 50 51  1  1
 52 37  1  0
 53 36  1  0
 54 38  1  0
 55 27  1  0
 56 43  1  0
 57 56  1  0
 58 47  1  0
 59 45  1  0
 60 45  1  0
 47 61  1  1
 62 50  1  0
 63 54  1  0
 64 53  1  0
 65 52  1  0
 66 52  1  0
 67 53  1  0
 68 54  1  0
 69 58  1  0
M  END

> <chembl_id>
CHEMBL2371859

> <chembl_pref_name>
None

$$$$

     RDKit          2D

 23 22  0  0  0  0  0  0  0  0999 V2000
   -8.7214    3.8009    0.0000 N   0  0  0  0  0  0  0  0  0  0  0  0
   -8.0070    4.2134    0.0000 C   0  0  0  0  0  0  0  0  0  0  0  0
   -7.2925    3.8009    0.0000 C   0  0  0  0  0  0  0  0  0  0  0  0
   -6.5780    4.2134    0.0000 N   0  0  0  0  0  0  0  0  0  0  0  0
   -5.8635    3.8009    0.0000 C   0  0  0  0  0  0  0  0  0  0  0  0
   -5.1491    4.2134    0.0000 C   0  0  0  0  0  0  0  0  0  0  0  0
   -4.4346    3.8009    0.0000 S   0  0  0  0  0  0  0  0  0  0  0  0
   -9.4359    4.2134    0.0000 C   0  0  0  0  0  0  0  0  0  0  0  0
  -10.1504    3.8009    0.0000 O   0  0  0  0  0  0  0  0  0  0  0  0
   -9.4359    5.0384    0.0000 O   0  0  0  0  0  0  0  0  0  0  0  0
  -10.1504    5.4509    0.0000 C   0  0  0  0  0  0  0  0  0  0  0  0
  -10.1504    6.2759    0.0000 C   0  0  0  0  0  0  0  0  0  0  0  0
  -10.8648    5.0384    0.0000 C   0  0  0  0  0  0  0  0  0  0  0  0
  -10.8648    5.8634    0.0000 C   0  0  0  0  0  0  0  0  0  0  0  0
   -5.1491    5.0384    0.0000 O   0  0  0  0  0  0  0  0  0  0  0  0
   -4.4346    2.9759    0.0000 C   0  0  0  0  0  0  0  0  0  0  0  0
   -3.7201    2.5634    0.0000 C   0  0  0  0  0  0  0  0  0  0  0  0
   -3.7201    1.7384    0.0000 N   0  0  0  0  0  0  0  0  0  0  0  0
   -3.0057    1.3259    0.0000 C   0  0  0  0  0  0  0  0  0  0  0  0
   -3.0057    0.5009    0.0000 C   0  0  0  0  0  0  0  0  0  0  0  0
   -2.2912    1.7384    0.0000 O   0  0  0  0  0  0  0  0  0  0  0  0
   -7.2925    2.9759    0.0000 O   0  0  0  0  0  0  0  0  0  0  0  0
   -8.0070    5.0384    0.0000 C   0  0  0  0  0  0  0  0  0  0  0  0
  1  2  1  0
  2  3  1  0
  3  4  1  0
  4  5  1  0
  5  6  1  0
  6  7  1  0
  1  8  1  0
  8  9  2  0
  8 10  1  0
 10 11  1  0
 11 12  1  0
 11 13  1  0
 11 14  1  0
  6 15  2  0
  7 16  1  0
 16 17  1  0
 17 18  1  0
 18 19  1  0
 19 20  1  0
 19 21  2  0
  3 22  2  0
  2 23  1  6
M  END

> <chembl_id>
CHEMBL461176

> <chembl_pref_name>
None

$$$$

     RDKit          2D

 42 43  0  0  0  0  0  0  0  0999 V2000
    3.6294  -19.7229    0.0000 C   0  0  0  0  0  0  0  0  0  0  0  0
    4.3453  -19.3062    0.0000 C   0  0  0  0  0  0  0  0  0  0  0  0
    5.0570  -19.7229    0.0000 N   0  0  0  0  0  0  0  0  0  0  0  0
    4.3453  -18.4812    0.0000 C   0  0  0  0  0  0  0  0  0  0  0  0
    3.6294  -18.0687    0.0000 C   0  0  0  0  0  0  0  0  0  0  0  0
    3.6294  -17.2437    0.0000 S   0  0  0  0  0  0  0  0  0  0  0  0
    2.9136  -16.8312    0.0000 C   0  0  0  0  0  0  0  0  0  0  0  0
    2.9136  -19.3062    0.0000 O   0  0  0  0  0  0  0  0  0  0  0  0
    3.6294  -20.5479    0.0000 S   0  0  0  0  0  0  0  0  0  0  0  0
    2.9136  -20.9604    0.0000 C   0  0  0  0  0  0  0  0  0  0  0  0
    2.9136  -21.7854    0.0000 C   0  0  0  0  0  0  0  0  0  0  0  0
    2.1977  -22.1979    0.0000 N   0  0  0  0  0  0  0  0  0  0  0  0
    3.6294  -22.1979    0.0000 C   0  0  0  0  0  0  0  0  0  0  0  0
    3.6294  -23.0229    0.0000 O   0  0  0  0  0  0  0  0  0  0  0  0
    4.3453  -21.7854    0.0000 N   0  0  0  0  0  0  0  0  0  0  0  0
    5.0570  -22.1979    0.0000 C   0  0  0  0  0  0  0  0  0  0  0  0
    5.7728  -21.7854    0.0000 C   0  0  0  0  0  0  0  0  0  0  0  0
    5.0570  -23.0229    0.0000 C   0  0  0  0  0  0  0  0  0  0  0  0
    6.4845  -22.1979    0.0000 N   0  0  0  0  0  0  0  0  0  0  0  0
    5.7728  -20.9604    0.0000 O   0  0  0  0  0  0  0  0  0  0  0  0
    7.2004  -21.7854    0.0000 C   0  0  0  0  0  0  0  0  0  0  0  0
    7.9128  -22.1911    0.0000 C   0  0  0  0  0  0  0  0  0  0  0  0
    7.2004  -20.9604    0.0000 C   0  0  0  0  0  0  0  0  0  0  0  0
    8.6265  -21.7773    0.0000 C   0  0  0  0  0  0  0  0  0  0  0  0
    9.3422  -22.1933    0.0000 C   0  0  0  0  0  0  0  0  0  0  0  0
   10.0552  -21.7805    0.0000 C   0  0  0  0  0  0  0  0  0  0  0  0
   10.0537  -20.9530    0.0000 C   0  0  0  0  0  0  0  0  0  0  0  0
    9.3323  -20.5444    0.0000 C   0  0  0  0  0  0  0  0  0  0  0  0
    8.6217  -20.9571    0.0000 C   0  0  0  0  0  0  0  0  0  0  0  0
    7.9163  -20.5479    0.0000 O   0  0  0  0  0  0  0  0  0  0  0  0
    5.7728  -19.3062    0.0000 C   0  0  0  0  0  0  0  0  0  0  0  0
    6.4845  -19.7229    0.0000 C   0  0  0  0  0  0  0  0  0  0  0  0
    5.7728  -18.4812    0.0000 O   0  0  0  0  0  0  0  0  0  0  0  0
    7.2004  -19.3062    0.0000 C   0  0  0  0  0  0  0  0  0  0  0  0
    6.4768  -20.5415    0.0000 N   0  0  0  0  0  0  0  0  0  0  0  0
    7.9163  -19.7229    0.0000 C   0  0  0  0  0  0  0  0  0  0  0  0
    7.2004  -18.4812    0.0000 C   0  0  0  0  0  0  0  0  0  0  0  0
    7.9163  -18.0687    0.0000 C   0  0  0  0  0  0  0  0  0  0  0  0
    1.4860  -21.7854    0.0000 C   0  0  0  0  0  0  0  0  0  0  0  0
    0.7701  -22.1979    0.0000 C   0  0  0  0  0  0  0  0  0  0  0  0
    1.4860  -20.9604    0.0000 O   0  0  0  0  0  0  0  0  0  0  0  0
    7.3491  -20.2254    0.0000 H   0  0  0  0  0  0  0  0  0  0  0  0
  1  2  1  0
  2  3  1  0
  2  4  1  6
  4  5  1  0
  5  6  1  0
  6  7  1  0
  1  8  2  0
  1  9  1  0
  9 10  1  0
 10 11  1  0
 11 12  1  1
 11 13  1  0
 13 14  2  0
 13 15  1  0
 15 16  1  0
 16 17  1  0
 16 18  1  6
 17 19  1  0
 17 20  2  0
 19 21  1  0
 21 22  1  6
 21 23  1  0
 22 24  1  0
 24 25  2  0
 25 26  1  0
 26 27  2  0
 27 28  1  0
 28 29  2  0
 29 24  1  0
 23 30  2  0
 23 35  1  0
  3 31  1  0
 32 31  1  0
 31 33  2  0
 32 34  1  0
 32 35  1  0
 34 36  1  6
 34 37  1  0
 37 38  1  0
 12 39  1  0
 39 40  1  0
 39 41  2  0
 32 42  1  1
M  END

> <chembl_id>
CHEMBL2337558

> <chembl_pref_name>
None

$$$$

     RDKit          2D

 49 51  0  0  0  0  0  0  0  0999 V2000
   21.6127  -12.2062    0.0000 C   0  0  0  0  0  0  0  0  0  0  0  0
   22.3286  -11.7895    0.0000 C   0  0  0  0  0  0  0  0  0  0  0  0
   23.0403  -12.2062    0.0000 N   0  0  0  0  0  0  0  0  0  0  0  0
   22.3286  -10.9645    0.0000 C   0  0  0  0  0  0  0  0  0  0  0  0
   21.6127  -10.5520    0.0000 C   0  0  0  0  0  0  0  0  0  0  0  0
   21.6127   -9.7270    0.0000 S   0  0  0  0  0  0  0  0  0  0  0  0
   20.8969   -9.3145    0.0000 C   0  0  0  0  0  0  0  0  0  0  0  0
   20.8969  -11.7895    0.0000 O   0  0  0  0  0  0  0  0  0  0  0  0
   21.6127  -13.0312    0.0000 S   0  0  0  0  0  0  0  0  0  0  0  0
   20.8969  -13.4437    0.0000 C   0  0  0  0  0  0  0  0  0  0  0  0
   20.8969  -14.2687    0.0000 C   0  0  0  0  0  0  0  0  0  0  0  0
   20.1810  -14.6812    0.0000 N   0  0  0  0  0  0  0  0  0  0  0  0
   21.6127  -14.6812    0.0000 C   0  0  0  0  0  0  0  0  0  0  0  0
   21.6127  -15.5062    0.0000 O   0  0  0  0  0  0  0  0  0  0  0  0
   22.3286  -14.2687    0.0000 N   0  0  0  0  0  0  0  0  0  0  0  0
   23.0403  -14.6812    0.0000 C   0  0  0  0  0  0  0  0  0  0  0  0
   23.7562  -14.2687    0.0000 C   0  0  0  0  0  0  0  0  0  0  0  0
   23.0403  -15.5062    0.0000 C   0  0  0  0  0  0  0  0  0  0  0  0
   24.4679  -14.6812    0.0000 N   0  0  0  0  0  0  0  0  0  0  0  0
   23.7562  -13.4437    0.0000 O   0  0  0  0  0  0  0  0  0  0  0  0
   25.1837  -14.2687    0.0000 C   0  0  0  0  0  0  0  0  0  0  0  0
   25.8961  -14.6744    0.0000 C   0  0  0  0  0  0  0  0  0  0  0  0
   25.1837  -13.4437    0.0000 C   0  0  0  0  0  0  0  0  0  0  0  0
   26.6098  -14.2606    0.0000 C   0  0  0  0  0  0  0  0  0  0  0  0
   27.3256  -14.6766    0.0000 C   0  0  0  0  0  0  0  0  0  0  0  0
   28.0385  -14.2638    0.0000 C   0  0  0  0  0  0  0  0  0  0  0  0
   28.0370  -13.4363    0.0000 C   0  0  0  0  0  0  0  0  0  0  0  0
   27.3156  -13.0278    0.0000 C   0  0  0  0  0  0  0  0  0  0  0  0
   26.6050  -13.4405    0.0000 C   0  0  0  0  0  0  0  0  0  0  0  0
   25.8996  -13.0312    0.0000 O   0  0  0  0  0  0  0  0  0  0  0  0
   23.7562  -11.7895    0.0000 C   0  0  0  0  0  0  0  0  0  0  0  0
   24.4679  -12.2062    0.0000 C   0  0  0  0  0  0  0  0  0  0  0  0
   23.7562  -10.9645    0.0000 O   0  0  0  0  0  0  0  0  0  0  0  0
   25.1837  -11.7895    0.0000 C   0  0  0  0  0  0  0  0  0  0  0  0
   24.4601  -13.0249    0.0000 N   0  0  0  0  0  0  0  0  0  0  0  0
   25.8996  -12.2062    0.0000 C   0  0  0  0  0  0  0  0  0  0  0  0
   25.1837  -10.9645    0.0000 C   0  0  0  0  0  0  0  0  0  0  0  0
   25.8996  -10.5520    0.0000 C   0  0  0  0  0  0  0  0  0  0  0  0
   19.4693  -14.2687    0.0000 C   0  0  0  0  0  0  0  0  0  0  0  0
   18.7534  -14.6812    0.0000 C   0  0  0  0  0  0  0  0  0  0  0  0
   19.4693  -13.4437    0.0000 O   0  0  0  0  0  0  0  0  0  0  0  0
   23.7548  -15.9187    0.0000 C   0  0  0  0  0  0  0  0  0  0  0  0
   23.7514  -16.7424    0.0000 C   0  0  0  0  0  0  0  0  0  0  0  0
   24.4651  -17.1548    0.0000 C   0  0  0  0  0  0  0  0  0  0  0  0
   25.1805  -16.7422    0.0000 C   0  0  0  0  0  0  0  0  0  0  0  0
   25.1779  -15.9130    0.0000 C   0  0  0  0  0  0  0  0  0  0  0  0
   24.4637  -15.5043    0.0000 C   0  0  0  0  0  0  0  0  0  0  0  0
   25.8956  -17.1538    0.0000 O   0  0  0  0  0  0  0  0  0  0  0  0
   25.3324  -12.7088    0.0000 H   0  0  0  0  0  0  0  0  0  0  0  0
  1  2  1  0
  2  3  1  0
  2  4  1  6
  4  5  1  0
  5  6  1  0
  6  7  1  0
  1  8  2  0
  1  9  1  0
  9 10  1  0
 10 11  1  0
 11 12  1  1
 11 13  1  0
 13 14  2  0
 13 15  1  0
 15 16  1  0
 16 17  1  0
 16 18  1  6
 17 19  1  0
 17 20  2  0
 19 21  1  0
 21 22  1  6
 21 23  1  0
 22 24  1  0
 24 25  2  0
 25 26  1  0
 26 27  2  0
 27 28  1  0
 28 29  2  0
 29 24  1  0
 23 30  2  0
 23 35  1  0
  3 31  1  0
 32 31  1  0
 31 33  2  0
 32 34  1  0
 32 35  1  0
 34 36  1  6
 34 37  1  0
 37 38  1  0
 12 39  1  0
 39 40  1  0
 39 41  2  0
 18 42  1  0
 42 43  2  0
 43 44  1  0
 44 45  2  0
 45 46  1  0
 46 47  2  0
 47 42  1  0
 45 48  1  0
 32 49  1  1
M  END

> <chembl_id>
CHEMBL2337557

> <chembl_pref_name>
None

$$$$

     RDKit          2D

 67 71  0  0  0  0  0  0  0  0999 V2000
   17.4819  -26.1801    0.0000 C   0  0  0  0  0  0  0  0  0  0  0  0
   18.1891  -26.5896    0.0000 C   0  0  0  0  0  0  0  0  0  0  0  0
   17.4829  -25.3629    0.0000 O   0  0  0  0  0  0  0  0  0  0  0  0
   18.1880  -27.4068    0.0000 O   0  0  0  0  0  0  0  0  0  0  0  0
   18.8973  -26.1819    0.0000 C   0  0  0  0  0  0  0  0  0  0  0  0
   19.6045  -26.5914    0.0000 C   0  0  0  0  0  0  0  0  0  0  0  0
   19.4723  -25.5971    0.0000 C   0  0  0  0  0  0  0  0  0  0  0  0
   18.3125  -25.5971    0.0000 C   0  0  0  0  0  0  0  0  0  0  0  0
   20.3127  -26.1837    0.0000 O   0  0  0  0  0  0  0  0  0  0  0  0
   21.0199  -26.5932    0.0000 P   0  0  0  0  0  0  0  0  0  0  0  0
   21.7281  -26.1855    0.0000 O   0  0  0  0  0  0  0  0  0  0  0  0
   20.6031  -27.2975    0.0000 O   0  0  0  0  0  0  0  0  0  0  0  0
   21.5937  -27.1695    0.0000 O   0  0  0  0  0  0  0  0  0  0  0  0
   22.4353  -26.5950    0.0000 P   0  0  0  0  0  0  0  0  0  0  0  0
   22.2169  -27.3800    0.0000 O   0  0  0  0  0  0  0  0  0  0  0  0
   22.8360  -27.2975    0.0000 O   0  0  0  0  0  0  0  0  0  0  0  0
   23.1372  -26.1790    0.0000 O   0  0  0  0  0  0  0  0  0  0  0  0
   23.8496  -26.5795    0.0000 C   0  0  0  0  0  0  0  0  0  0  0  0
   24.4928  -26.0752    0.0000 C   0  0  0  0  0  0  0  0  0  0  0  0
   25.2747  -26.2978    0.0000 C   0  0  0  0  0  0  0  0  0  0  0  0
   25.7307  -25.6197    0.0000 C   0  0  0  0  0  0  0  0  0  0  0  0
   25.2266  -24.9764    0.0000 C   0  0  0  0  0  0  0  0  0  0  0  0
   24.4592  -25.2571    0.0000 O   0  0  0  0  0  0  0  0  0  0  0  0
   25.5554  -27.0653    0.0000 O   0  0  0  0  0  0  0  0  0  0  0  0
   26.5474  -25.5900    0.0000 O   0  0  0  0  0  0  0  0  0  0  0  0
   25.4648  -24.1956    0.0000 N   0  0  0  0  0  0  0  0  0  0  0  0
   25.4363  -22.8748    0.0000 N   0  0  0  0  0  0  0  0  0  0  0  0
   24.9717  -23.5482    0.0000 C   0  0  0  0  0  0  0  0  0  0  0  0
   26.2201  -23.1099    0.0000 C   0  0  0  0  0  0  0  0  0  0  0  0
   26.2342  -23.9279    0.0000 C   0  0  0  0  0  0  0  0  0  0  0  0
   26.9485  -24.3229    0.0000 N   0  0  0  0  0  0  0  0  0  0  0  0
   27.6492  -23.9011    0.0000 N   0  0  0  0  0  0  0  0  0  0  0  0
   27.6310  -23.0801    0.0000 C   0  0  0  0  0  0  0  0  0  0  0  0
   26.9163  -22.6888    0.0000 C   0  0  0  0  0  0  0  0  0  0  0  0
   26.8986  -21.8718    0.0000 N   0  0  0  0  0  0  0  0  0  0  0  0
   25.0312  -27.6921    0.0000 P   0  0  0  0  0  0  0  0  0  0  0  0
   25.4320  -28.3953    0.0000 O   0  0  0  0  0  0  0  0  0  0  0  0
   24.4456  -27.1076    0.0000 O   0  0  0  0  0  0  0  0  0  0  0  0
   24.4456  -28.2674    0.0000 O   0  0  0  0  0  0  0  0  0  0  0  0
   11.8239  -26.1723    0.0000 S   0  0  0  0  0  0  0  0  0  0  0  0
   12.5311  -26.5818    0.0000 C   0  0  0  0  0  0  0  0  0  0  0  0
   13.2393  -26.1742    0.0000 C   0  0  0  0  0  0  0  0  0  0  0  0
   13.9465  -26.5837    0.0000 N   0  0  0  0  0  0  0  0  0  0  0  0
   14.6547  -26.1760    0.0000 C   0  0  0  0  0  0  0  0  0  0  0  0
   15.3619  -26.5855    0.0000 C   0  0  0  0  0  0  0  0  0  0  0  0
   14.6558  -25.3588    0.0000 O   0  0  0  0  0  0  0  0  0  0  0  0
   16.0702  -26.1778    0.0000 C   0  0  0  0  0  0  0  0  0  0  0  0
   16.7773  -26.5873    0.0000 N   0  0  0  0  0  0  0  0  0  0  0  0
   11.1146  -26.5794    0.0000 C   0  0  0  0  0  0  0  0  0  0  0  0
    5.4566  -27.4194    0.0000 C   0  0  0  0  0  0  0  0  0  0  0  0
    5.4570  -26.6030    0.0000 C   0  0  0  0  0  0  0  0  0  0  0  0
    4.7488  -26.1968    0.0000 C   0  0  0  0  0  0  0  0  0  0  0  0
    4.0415  -26.6077    0.0000 C   0  0  0  0  0  0  0  0  0  0  0  0
    4.0467  -27.4291    0.0000 C   0  0  0  0  0  0  0  0  0  0  0  0
    4.7554  -27.8316    0.0000 C   0  0  0  0  0  0  0  0  0  0  0  0
   11.9029  -27.6112    0.0000 C   0  0  0  0  0  0  0  0  0  0  0  0
   11.1146  -27.4007    0.0000 C   0  0  0  0  0  0  0  0  0  0  0  0
   11.3265  -28.1886    0.0000 O   0  0  0  0  0  0  0  0  0  0  0  0
    8.2875  -27.4104    0.0000 C   0  0  0  0  0  0  0  0  0  0  0  0
    8.9965  -27.8167    0.0000 C   0  0  0  0  0  0  0  0  0  0  0  0
    9.7029  -27.4059    0.0000 C   0  0  0  0  0  0  0  0  0  0  0  0
   10.4119  -27.8122    0.0000 C   0  0  0  0  0  0  0  0  0  0  0  0
   10.4085  -26.1747    0.0000 O   0  0  0  0  0  0  0  0  0  0  0  0
    7.5811  -27.8212    0.0000 C   0  0  0  0  0  0  0  0  0  0  0  0
    6.8721  -27.4149    0.0000 C   0  0  0  0  0  0  0  0  0  0  0  0
    6.1657  -27.8258    0.0000 O   0  0  0  0  0  0  0  0  0  0  0  0
    3.3319  -26.2023    0.0000 Cl  0  0  0  0  0  0  0  0  0  0  0  0
  1  2  1  0
  1  3  2  0
  2  4  1  1
  2  5  1  0
  5  6  1  0
  5  7  1  0
  5  8  1  0
  6  9  1  0
  9 10  1  0
 10 11  1  0
 10 12  2  0
 10 13  1  0
 11 14  1  0
 14 15  2  0
 14 16  1  0
 14 17  1  0
 17 18  1  0
 19 18  1  1
 19 20  1  0
 20 21  1  0
 21 22  1  0
 22 23  1  0
 23 19  1  0
 20 24  1  6
 21 25  1  6
 26 30  1  0
 29 27  1  0
 27 28  2  0
 28 26  1  0
 22 26  1  1
 29 30  2  0
 30 31  1  0
 31 32  2  0
 32 33  1  0
 33 34  2  0
 34 29  1  0
 34 35  1  0
 24 36  1  0
 36 37  1  0
 36 38  2  0
 36 39  1  0
 49 40  1  0
 40 41  1  0
 41 42  1  0
 42 43  1  0
 43 44  1  0
 44 45  1  0
 44 46  2  0
 45 47  1  0
 47 48  1  0
 48  1  1  0
 50 51  2  0
 51 52  1  0
 52 53  2  0
 53 54  1  0
 54 55  2  0
 55 50  1  0
 57 56  1  0
 58 57  1  0
 56 58  1  0
 59 60  1  0
 60 61  1  0
 61 62  1  0
 57 62  1  6
 57 49  1  0
 49 63  2  0
 59 64  1  0
 64 65  1  0
 65 66  1  0
 66 50  1  0
 53 67  1  0
M  END

> <chembl_id>
CHEMBL2216792

> <chembl_pref_name>
None

$$$$
 
     RDKit          2D

 63 65  0  0  0  0  0  0  0  0999 V2000
    5.4191   -6.4426    0.0000 C   0  0  0  0  0  0  0  0  0  0  0  0
    6.1268   -6.0299    0.0000 C   0  0  0  0  0  0  0  0  0  0  0  0
    4.7072   -6.0299    0.0000 N   0  0  0  0  0  0  0  0  0  0  0  0
    5.4191   -7.2639    0.0000 C   0  0  0  0  0  0  0  0  0  0  0  0
    4.7072   -7.6725    0.0000 C   0  0  0  0  0  0  0  0  0  0  0  0
    6.1268   -5.2086    0.0000 O   0  0  0  0  0  0  0  0  0  0  0  0
    6.8386   -6.4426    0.0000 N   0  0  0  0  0  0  0  0  0  0  0  0
    7.5504   -6.0299    0.0000 C   0  0  0  0  0  0  0  0  0  0  0  0
    8.2623   -6.4426    0.0000 C   0  0  0  0  0  0  0  0  0  0  0  0
    7.5504   -5.2086    0.0000 C   0  0  0  0  0  0  0  0  0  0  0  0
    6.8386   -4.8000    0.0000 O   0  0  0  0  0  0  0  0  0  0  0  0
    8.2623   -7.2639    0.0000 O   0  0  0  0  0  0  0  0  0  0  0  0
    8.9741   -6.0299    0.0000 N   0  0  0  0  0  0  0  0  0  0  0  0
    9.6859   -6.4426    0.0000 C   0  0  0  0  0  0  0  0  0  0  0  0
   10.3978   -6.0299    0.0000 C   0  0  0  0  0  0  0  0  0  0  0  0
    9.6859   -7.2639    0.0000 C   0  0  0  0  0  0  0  0  0  0  0  0
    8.9741   -7.6725    0.0000 C   0  0  0  0  0  0  0  0  0  0  0  0
   10.3978   -7.6725    0.0000 O   0  0  0  0  0  0  0  0  0  0  0  0
   11.1096   -6.4426    0.0000 N   0  0  0  0  0  0  0  0  0  0  0  0
   10.3978   -5.2086    0.0000 O   0  0  0  0  0  0  0  0  0  0  0  0
   11.8173   -6.0299    0.0000 C   0  0  0  0  0  0  0  0  0  0  0  0
   12.5245   -6.4435    0.0000 C   0  0  0  0  0  0  0  0  0  0  0  0
   11.8109   -5.2086    0.0000 C   0  0  0  0  0  0  0  0  0  0  0  0
   12.5268   -4.8018    0.0000 S   0  0  0  0  0  0  0  0  0  0  0  0
   13.2447   -3.5731    0.0000 C   0  0  0  0  0  0  0  0  0  0  0  0
   12.5275   -3.9817    0.0000 C   0  0  0  0  0  0  0  0  0  0  0  0
   13.9552   -3.9903    0.0000 N   0  0  0  0  0  0  0  0  0  0  0  0
   15.3767   -4.0067    0.0000 C   0  0  0  0  0  0  0  0  0  0  0  0
   14.6684   -3.5832    0.0000 C   0  0  0  0  0  0  0  0  0  0  0  0
   13.2317   -6.0340    0.0000 N   0  0  0  0  0  0  0  0  0  0  0  0
   13.9349   -6.4480    0.0000 C   0  0  0  0  0  0  0  0  0  0  0  0
   14.6475   -6.0422    0.0000 C   0  0  0  0  0  0  0  0  0  0  0  0
   15.3493   -6.4561    0.0000 N   0  0  0  0  0  0  0  0  0  0  0  0
   16.0616   -6.0527    0.0000 C   0  0  0  0  0  0  0  0  0  0  0  0
   16.0677   -5.2350    0.0000 C   0  0  0  0  0  0  0  0  0  0  0  0
   15.3615   -4.8206    0.0000 N   0  0  0  0  0  0  0  0  0  0  0  0
    3.9969   -7.2591    0.0000 C   0  0  0  0  0  0  0  0  0  0  0  0
    3.2856   -7.6670    0.0000 C   0  0  0  0  0  0  0  0  0  0  0  0
    3.2851   -8.4892    0.0000 C   0  0  0  0  0  0  0  0  0  0  0  0
    4.0019   -8.9018    0.0000 C   0  0  0  0  0  0  0  0  0  0  0  0
    4.7104   -8.4874    0.0000 C   0  0  0  0  0  0  0  0  0  0  0  0
    2.5738   -8.9029    0.0000 O   0  0  0  0  0  0  0  0  0  0  0  0
   11.8174   -3.5660    0.0000 O   0  0  0  0  0  0  0  0  0  0  0  0
   14.6768   -2.7619    0.0000 O   0  0  0  0  0  0  0  0  0  0  0  0
   16.7830   -4.8324    0.0000 O   0  0  0  0  0  0  0  0  0  0  0  0
   14.6537   -5.2209    0.0000 O   0  0  0  0  0  0  0  0  0  0  0  0
   12.5227   -7.2648    0.0000 O   0  0  0  0  0  0  0  0  0  0  0  0
   13.9290   -7.2693    0.0000 C   0  0  0  0  0  0  0  0  0  0  0  0
   16.7657   -6.4717    0.0000 C   0  0  0  0  0  0  0  0  0  0  0  0
   16.7584   -7.2929    0.0000 C   0  0  0  0  0  0  0  0  0  0  0  0
   16.0951   -3.6055    0.0000 C   0  0  0  0  0  0  0  0  0  0  0  0
   16.8002   -4.0297    0.0000 C   0  0  0  0  0  0  0  0  0  0  0  0
   16.1083   -2.7843    0.0000 C   0  0  0  0  0  0  0  0  0  0  0  0
   16.8267   -2.3873    0.0000 C   0  0  0  0  0  0  0  0  0  0  0  0
   13.2502   -2.7518    0.0000 C   0  0  0  0  0  0  0  0  0  0  0  0
   12.5411   -2.3385    0.0000 C   0  0  0  0  0  0  0  0  0  0  0  0
   12.5465   -1.5172    0.0000 S   0  0  0  0  0  0  0  0  0  0  0  0
   11.8374   -1.0998    0.0000 C   0  0  0  0  0  0  0  0  0  0  0  0
   16.0440   -7.6917    0.0000 C   0  0  0  0  0  0  0  0  0  0  0  0
   16.0364   -8.5122    0.0000 C   0  0  0  0  0  0  0  0  0  0  0  0
   16.7410   -8.9320    0.0000 C   0  0  0  0  0  0  0  0  0  0  0  0
   17.4588   -8.5212    0.0000 C   0  0  0  0  0  0  0  0  0  0  0  0
   17.4629   -7.7020    0.0000 C   0  0  0  0  0  0  0  0  0  0  0  0
  1  2  1  0
  1  3  1  0
  1  4  1  1
  4  5  1  0
  2  6  2  0
  2  7  1  0
  7  8  1  0
  8  9  1  0
  8 10  1  6
 10 11  1  0
  9 12  2  0
  9 13  1  0
 14 13  1  1
 14 15  1  0
 14 16  1  0
 16 17  1  0
 16 18  1  6
 15 19  1  0
 15 20  2  0
 21 19  1  6
 21 22  1  0
 21 23  1  0
 22 30  1  0
 24 23  1  0
 24 26  1  0
 27 25  1  0
 25 26  1  0
 27 29  1  0
 28 36  1  1
 28 29  1  0
 30 31  1  0
 31 32  1  0
 32 33  1  0
 33 34  1  0
 34 35  1  0
 35 36  1  0
  5 37  2  0
 37 38  1  0
 38 39  2  0
 39 40  1  0
 40 41  2  0
 41  5  1  0
 39 42  1  0
 26 43  2  0
 29 44  2  0
 35 45  2  0
 32 46  2  0
 22 47  2  0
 31 48  1  1
 34 49  1  1
 49 50  1  0
 28 51  1  0
 51 52  1  6
 51 53  1  0
 53 54  1  0
 25 55  1  1
 55 56  1  0
 56 57  1  0
 57 58  1  0
 50 59  2  0
 59 60  1  0
 60 61  2  0
 61 62  1  0
 62 63  2  0
 63 50  1  0
M  END

> <chembl_id>
CHEMBL4448477

> <chembl_pref_name>
None

$$$$

     RDKit          2D

 57 60  0  0  0  0  0  0  0  0999 V2000
    6.5503   -5.5713    0.0000 C   0  0  0  0  0  0  0  0  0  0  0  0
    5.8295   -5.1630    0.0000 C   0  0  0  0  0  0  0  0  0  0  0  0
    5.1169   -5.5837    0.0000 C   0  0  0  0  0  0  0  0  0  0  0  0
    6.5544   -6.3963    0.0000 O   0  0  0  0  0  0  0  0  0  0  0  0
    4.3877   -5.1630    0.0000 C   0  0  0  0  0  0  0  0  0  0  0  0
    5.1169   -6.4087    0.0000 C   0  0  0  0  0  0  0  0  0  0  0  0
    7.2753   -5.1588    0.0000 S   0  0  0  0  0  0  0  0  0  0  0  0
    3.6794   -6.4087    0.0000 C   0  0  0  0  0  0  0  0  0  0  0  0
    4.3877   -6.8255    0.0000 C   0  0  0  0  0  0  0  0  0  0  0  0
    3.6794   -5.5837    0.0000 C   0  0  0  0  0  0  0  0  0  0  0  0
   16.5452   -5.8684    0.0000 P   0  0  0  0  0  0  0  0  0  0  0  0
   16.1123   -6.5707    0.0000 O   0  0  0  0  0  0  0  0  0  0  0  0
   16.9369   -6.5945    0.0000 O   0  0  0  0  0  0  0  0  0  0  0  0
   17.6453   -8.1385    0.0000 P   0  0  0  0  0  0  0  0  0  0  0  0
   17.6386   -8.9635    0.0000 O   0  0  0  0  0  0  0  0  0  0  0  0
   18.3564   -8.5569    0.0000 O   0  0  0  0  0  0  0  0  0  0  0  0
   14.4165   -5.3956    0.0000 C   0  0  0  0  0  0  0  0  0  0  0  0
   14.8521   -4.6949    0.0000 C   0  0  0  0  0  0  0  0  0  0  0  0
   14.0276   -4.6681    0.0000 C   0  0  0  0  0  0  0  0  0  0  0  0
    7.9759   -5.5943    0.0000 C   0  0  0  0  0  0  0  0  0  0  0  0
    8.7035   -5.2054    0.0000 C   0  0  0  0  0  0  0  0  0  0  0  0
    9.4041   -5.6410    0.0000 N   0  0  0  0  0  0  0  0  0  0  0  0
   10.1316   -5.2520    0.0000 C   0  0  0  0  0  0  0  0  0  0  0  0
   10.8323   -5.6875    0.0000 C   0  0  0  0  0  0  0  0  0  0  0  0
   11.5598   -5.2985    0.0000 C   0  0  0  0  0  0  0  0  0  0  0  0
   10.1585   -4.4274    0.0000 O   0  0  0  0  0  0  0  0  0  0  0  0
   12.2604   -5.7341    0.0000 N   0  0  0  0  0  0  0  0  0  0  0  0
   12.9880   -5.3451    0.0000 C   0  0  0  0  0  0  0  0  0  0  0  0
   13.6886   -5.7807    0.0000 C   0  0  0  0  0  0  0  0  0  0  0  0
   13.0149   -4.5206    0.0000 O   0  0  0  0  0  0  0  0  0  0  0  0
   13.6617   -6.6052    0.0000 O   0  0  0  0  0  0  0  0  0  0  0  0
   15.1168   -5.8272    0.0000 C   0  0  0  0  0  0  0  0  0  0  0  0
   15.8428   -5.4355    0.0000 O   0  0  0  0  0  0  0  0  0  0  0  0
   17.2712   -5.4766    0.0000 O   0  0  0  0  0  0  0  0  0  0  0  0
   17.9735   -5.9096    0.0000 P   0  0  0  0  0  0  0  0  0  0  0  0
   18.6996   -5.5178    0.0000 O   0  0  0  0  0  0  0  0  0  0  0  0
   19.4018   -5.9507    0.0000 C   0  0  0  0  0  0  0  0  0  0  0  0
   19.3766   -6.7777    0.0000 C   0  0  0  0  0  0  0  0  0  0  0  0
   18.8886   -7.4342    0.0000 C   0  0  0  0  0  0  0  0  0  0  0  0
   19.3701   -8.1040    0.0000 C   0  0  0  0  0  0  0  0  0  0  0  0
   20.1560   -7.8529    0.0000 C   0  0  0  0  0  0  0  0  0  0  0  0
   20.1601   -7.0279    0.0000 O   0  0  0  0  0  0  0  0  0  0  0  0
   18.0635   -7.4275    0.0000 O   0  0  0  0  0  0  0  0  0  0  0  0
   19.1114   -8.8873    0.0000 O   0  0  0  0  0  0  0  0  0  0  0  0
   20.8211   -8.3410    0.0000 N   0  0  0  0  0  0  0  0  0  0  0  0
   22.0877   -8.7576    0.0000 N   0  0  0  0  0  0  0  0  0  0  0  0
   21.6060   -8.0878    0.0000 C   0  0  0  0  0  0  0  0  0  0  0  0
   21.5995   -9.4227    0.0000 C   0  0  0  0  0  0  0  0  0  0  0  0
   20.8203   -9.1621    0.0000 C   0  0  0  0  0  0  0  0  0  0  0  0
   20.2072   -9.7062    0.0000 N   0  0  0  0  0  0  0  0  0  0  0  0
   20.3720  -10.5108    0.0000 C   0  0  0  0  0  0  0  0  0  0  0  0
   21.1554  -10.7685    0.0000 N   0  0  0  0  0  0  0  0  0  0  0  0
   21.7652  -10.2227    0.0000 C   0  0  0  0  0  0  0  0  0  0  0  0
   22.5488  -10.4810    0.0000 N   0  0  0  0  0  0  0  0  0  0  0  0
   16.8203   -8.1319    0.0000 O   0  0  0  0  0  0  0  0  0  0  0  0
   17.5411   -6.6143    0.0000 O   0  0  0  0  0  0  0  0  0  0  0  0
   18.3657   -6.6381    0.0000 O   0  0  0  0  0  0  0  0  0  0  0  0
  2  1  1  0
  3  2  1  0
  4  1  2  0
  5  3  2  0
  6  3  1  0
  7  1  1  0
  8  9  1  0
  9  6  2  0
 10  5  1  0
  8 10  2  0
 12 11  1  0
 11 13  2  0
 15 14  1  0
 14 16  2  0
 18 17  1  0
 17 19  1  0
  7 20  1  0
 20 21  1  0
 21 22  1  0
 22 23  1  0
 23 24  1  0
 24 25  1  0
 23 26  2  0
 25 27  1  0
 27 28  1  0
 28 29  1  0
 28 30  2  0
 29 31  1  0
 29 17  1  0
 17 32  1  0
 32 33  1  0
 33 11  1  0
 11 34  1  0
 34 35  1  0
 35 36  1  0
 36 37  1  0
 38 37  1  1
 38 39  1  0
 39 40  1  0
 40 41  1  0
 41 42  1  0
 42 38  1  0
 39 43  1  6
 40 44  1  6
 41 45  1  1
 45 49  1  0
 48 46  1  0
 46 47  2  0
 47 45  1  0
 48 49  2  0
 49 50  1  0
 50 51  2  0
 51 52  1  0
 52 53  2  0
 53 48  1  0
 53 54  1  0
 43 14  1  0
 14 55  1  0
 56 35  2  0
 35 57  1  0
M  END

> <chembl_id>
CHEMBL3526286

> <chembl_pref_name>
None

$$$$

     RDKit          2D

 22 24  0  0  0  0  0  0  0  0999 V2000
   29.3678   -7.6552    0.0000 C   0  0  0  0  0  0  0  0  0  0  0  0
   28.7048   -7.1731    0.0000 N   0  0  0  0  0  0  0  0  0  0  0  0
   28.0420   -7.6552    0.0000 C   0  0  0  0  0  0  0  0  0  0  0  0
   29.1134   -8.4361    0.0000 C   0  0  0  0  0  0  0  0  0  0  0  0
   28.2921   -8.4361    0.0000 C   0  0  0  0  0  0  0  0  0  0  0  0
   28.0396   -9.2174    0.0000 C   0  0  0  0  0  0  0  0  0  0  0  0
   28.7048   -9.7019    0.0000 C   0  0  0  0  0  0  0  0  0  0  0  0
   29.3659   -9.2174    0.0000 C   0  0  0  0  0  0  0  0  0  0  0  0
   27.2582   -9.4699    0.0000 O   0  0  0  0  0  0  0  0  0  0  0  0
   27.4667   -8.4319    0.0000 H   0  0  0  0  0  0  0  0  0  0  0  0
   29.9307   -8.4361    0.0000 S   0  0  0  0  0  0  0  0  0  0  0  0
   30.3434   -9.1479    0.0000 C   0  0  0  0  0  0  0  0  0  0  0  0
   31.1647   -9.1478    0.0000 C   0  0  0  0  0  0  0  0  0  0  0  0
   29.9307   -9.8597    0.0000 O   0  0  0  0  0  0  0  0  0  0  0  0
   30.1495   -7.4038    0.0000 O   0  0  0  0  0  0  0  0  0  0  0  0
   27.2605   -7.4031    0.0000 O   0  0  0  0  0  0  0  0  0  0  0  0
   31.5733   -8.4360    0.0000 C   0  0  0  0  0  0  0  0  0  0  0  0
   32.3916   -8.4387    0.0000 C   0  0  0  0  0  0  0  0  0  0  0  0
   32.8042   -7.7277    0.0000 C   0  0  0  0  0  0  0  0  0  0  0  0
   32.3914   -7.0149    0.0000 C   0  0  0  0  0  0  0  0  0  0  0  0
   31.5659   -7.0176    0.0000 C   0  0  0  0  0  0  0  0  0  0  0  0
   31.1611   -7.7291    0.0000 C   0  0  0  0  0  0  0  0  0  0  0  0
  4  1  1  0
  1  2  1  0
  2  3  1  0
  3  5  1  0
  4  5  1  0
  5  6  1  0
  6  7  1  0
  7  8  1  0
  8  4  1  0
  6  9  1  6
  5 10  1  1
  4 11  1  1
 11 12  1  0
 12 13  1  0
 12 14  2  0
  1 15  2  0
  3 16  2  0
 13 17  1  0
 17 18  2  0
 18 19  1  0
 19 20  2  0
 20 21  1  0
 21 22  2  0
 22 17  1  0
M  END

> <chembl_id>
CHEMBL4092512

> <chembl_pref_name>
None

$$$$

     RDKit          2D

 38 39  0  0  0  0  0  0  0  0999 V2000
   14.4154  -10.9108    0.0000 C   0  0  0  0  0  0  0  0  0  0  0  0
   14.4081  -11.7358    0.0000 C   0  0  0  0  0  0  0  0  0  0  0  0
   15.1344  -10.5065    0.0000 N   0  0  0  0  0  0  0  0  0  0  0  0
   16.5859   -7.2129    0.0000 C   0  0  0  0  0  0  0  0  0  0  0  0
   15.1418   -9.6815    0.0000 C   0  0  0  0  0  0  0  0  0  0  0  0
   13.6883  -12.1494    0.0000 N   0  0  0  0  0  0  0  0  0  0  0  0
   12.9692  -13.3830    0.0000 C   0  0  0  0  0  0  0  0  0  0  0  0
   15.1234  -12.1584    0.0000 O   0  0  0  0  0  0  0  0  0  0  0  0
   15.8742   -6.7924    0.0000 O   0  0  0  0  0  0  0  0  0  0  0  0
   16.5786   -8.0379    0.0000 C   0  0  0  0  0  0  0  0  0  0  0  0
   14.4300   -9.2610    0.0000 O   0  0  0  0  0  0  0  0  0  0  0  0
   12.2553  -12.9661    0.0000 O   0  0  0  0  0  0  0  0  0  0  0  0
   13.6853  -12.9672    0.0000 C   0  0  0  0  0  0  0  0  0  0  0  0
   15.8609   -8.4480    0.0000 C   0  0  0  0  0  0  0  0  0  0  0  0
   15.8537   -9.2728    0.0000 C   0  0  0  0  0  0  0  0  0  0  0  0
   17.3092   -6.8013    0.0000 O   0  0  0  0  0  0  0  0  0  0  0  0
   17.2939   -8.4605    0.0000 N   0  0  0  0  0  0  0  0  0  0  0  0
   13.7110   -9.6653    0.0000 S   0  0  0  0  0  0  0  0  0  0  0  0
   12.9597  -14.2115    0.0000 O   0  0  0  0  0  0  0  0  0  0  0  0
   13.7037  -10.4903    0.0000 C   0  0  0  0  0  0  0  0  0  0  0  0
    9.4274  -10.5171    0.0000 C   0  0  0  0  0  0  0  0  0  0  0  0
   12.2831  -10.5045    0.0000 C   0  0  0  0  0  0  0  0  0  0  0  0
   10.8553  -10.5087    0.0000 N   0  0  0  0  0  0  0  0  0  0  0  0
   11.5775  -10.9220    0.0000 C   0  0  0  0  0  0  0  0  0  0  0  0
    9.4274  -12.1746    0.0000 C   0  0  0  0  0  0  0  0  0  0  0  0
    9.4232   -9.6904    0.0000 Cl  0  0  0  0  0  0  0  0  0  0  0  0
   12.9971  -10.9095    0.0000 C   0  0  0  0  0  0  0  0  0  0  0  0
   12.9804   -8.4295    0.0000 O   0  0  0  0  0  0  0  0  0  0  0  0
    8.7134  -10.9304    0.0000 C   0  0  0  0  0  0  0  0  0  0  0  0
   12.2790   -9.6779    0.0000 C   0  0  0  0  0  0  0  0  0  0  0  0
   10.1413  -10.9304    0.0000 C   0  0  0  0  0  0  0  0  0  0  0  0
   10.8636  -12.1746    0.0000 Cl  0  0  0  0  0  0  0  0  0  0  0  0
   11.5775  -11.7487    0.0000 C   0  0  0  0  0  0  0  0  0  0  0  0
   13.0096  -11.7362    0.0000 C   0  0  0  0  0  0  0  0  0  0  0  0
   12.2915  -12.1579    0.0000 C   0  0  0  0  0  0  0  0  0  0  0  0
   12.9846   -9.2562    0.0000 C   0  0  0  0  0  0  0  0  0  0  0  0
   10.1413  -11.7612    0.0000 C   0  0  0  0  0  0  0  0  0  0  0  0
    8.7134  -11.7612    0.0000 C   0  0  0  0  0  0  0  0  0  0  0  0
  2  1  1  0
  1  3  1  6
  4 10  1  0
  5  3  1  0
  6  2  1  0
  7 13  1  0
  8  2  2  0
  9  4  2  0
 10 14  1  0
 11  5  2  0
 12  7  2  0
 13  6  1  0
 14 15  1  0
 15  5  1  0
 16  4  1  0
 10 17  1  1
 18 20  1  0
 19  7  1  0
 20  1  1  0
 29 21  1  0
 21 31  2  0
 32 37  1  0
 38 25  1  0
 28 36  2  0
 25 37  2  0
 18 36  1  0
 35 33  1  0
 24 23  1  0
 27 34  1  0
 31 23  1  0
 37 31  1  0
 30 22  1  0
 38 29  2  0
 22 24  1  0
 36 30  1  0
 33 24  2  0
 26 21  1  0
 34 35  2  0
 27 22  2  0
M  END

> <chembl_id>
CHEMBL3526989

> <chembl_pref_name>
None

$$$$

     RDKit          2D

 42 43  0  0  1  0  0  0  0  0999 V2000
    1.6167   -0.1375    0.0000 N   0  0  0  0  0  0  0  0  0  0  0  0
    0.7167   -1.4792    0.0000 C   0  0  0  0  0  0  0  0  0  0  0  0
    0.7167    2.0458    0.0000 N   0  0  0  0  0  0  0  0  0  0  0  0
   -0.0458   -1.8000    0.0000 N   0  0  0  0  0  0  0  0  0  0  0  0
    1.6167    0.6958    0.0000 C   0  0  0  0  0  0  0  0  0  0  0  0
   -2.2208    1.4583    0.0000 C   0  0  0  0  0  0  0  0  0  0  0  0
   -1.6333    2.0458    0.0000 N   0  0  0  0  0  0  0  0  0  0  0  0
   -0.0458    2.3583    0.0000 C   0  0  0  0  0  0  0  0  0  0  0  0
   -2.5333    0.6958    0.0000 C   0  0  0  0  0  0  0  0  0  0  0  0
    1.3000   -0.9000    0.0000 C   0  0  0  0  0  0  0  0  0  0  0  0
    1.3000    1.4583    0.0000 C   0  0  0  0  0  0  0  0  0  0  0  0
   -1.6333   -1.4792    0.0000 C   0  0  0  0  0  0  0  0  0  0  0  0
   -2.2208   -0.9000    0.0000 S   0  0  0  0  0  0  0  0  0  0  0  0
   -3.3458    0.8583    0.0000 N   0  0  0  0  0  0  0  0  0  0  0  0
   -0.8708   -1.8000    0.0000 C   0  0  0  0  0  0  0  0  0  0  0  0
   -0.8708    2.3583    0.0000 C   0  0  0  0  0  0  0  0  0  0  0  0
   -2.5333   -0.1375    0.0000 C   0  0  0  0  0  0  0  0  0  0  0  0
   -3.8958    0.2333    0.0000 C   0  0  0  0  0  0  0  0  0  0  0  0
    1.1792   -2.1667    0.0000 O   0  0  0  0  0  0  0  0  0  0  0  0
   -2.9083    1.9208    0.0000 O   0  0  0  0  0  0  0  0  0  0  0  0
    2.1917    0.8583    0.0000 O   0  0  0  0  0  0  0  0  0  0  0  0
    0.1167    3.1708    0.0000 O   0  0  0  0  0  0  0  0  0  0  0  0
    1.9917    1.9208    0.0000 C   0  0  0  0  0  0  0  0  0  0  0  0
   -2.1000   -2.1667    0.0000 O   0  0  0  0  0  0  0  0  0  0  0  0
   -3.6250   -0.5417    0.0000 O   0  0  0  0  0  0  0  0  0  0  0  0
    1.9917   -1.3542    0.0000 C   0  0  0  0  0  0  0  0  0  0  0  0
   -1.0333   -2.6042    0.0000 C   0  0  0  0  0  0  0  0  0  0  0  0
    2.7375    1.5583    0.0000 C   0  0  0  0  0  0  0  0  0  0  0  0
   -1.9833   -3.6792    0.0000 S   0  0  0  0  0  0  0  0  0  0  0  0
   -1.0333    3.1708    0.0000 C   0  0  0  0  0  0  0  0  0  0  0  0
   -4.7083    0.3958    0.0000 C   0  0  0  0  0  0  0  0  0  0  0  0
   -1.8125   -2.8792    0.0000 C   0  0  0  0  0  0  0  0  0  0  0  0
    2.7375   -0.9917    0.0000 C   0  0  0  0  0  0  0  0  0  0  0  0
   -2.7625   -3.9542    0.0000 C   0  0  0  0  0  0  0  0  0  0  0  0
    1.9375   -2.1792    0.0000 C   0  0  0  0  0  0  0  0  0  0  0  0
    2.7917    0.7333    0.0000 C   0  0  0  0  0  0  0  0  0  0  0  0
    3.4167    2.0083    0.0000 C   0  0  0  0  0  0  0  0  0  0  0  0
    3.4167   -1.4417    0.0000 C   0  0  0  0  0  0  0  0  0  0  0  0
    3.5292    0.3583    0.0000 C   0  0  0  0  0  0  0  0  0  0  0  0
    4.1667    1.6458    0.0000 C   0  0  0  0  0  0  0  0  0  0  0  0
    4.2167    0.8208    0.0000 C   0  0  0  0  0  0  0  0  0  0  0  0
    2.2559   -0.6063    0.0000 H   0  0  0  0  0  0  0  0  0  0  0  0
  2 10  1  0
  3 11  1  0
  4  2  1  0
  5  1  1  0
  6  7  1  0
  7 16  1  0
  8  3  1  0
  9 17  1  0
 10  1  1  0
 11  5  1  0
 12 15  1  0
 13 12  1  0
  9 14  1  6
 15  4  1  0
 16  8  1  0
 17 13  1  0
 18 14  1  0
 19  2  2  0
 20  6  2  0
 21  5  2  0
 22  8  2  0
 11 23  1  6
 24 12  2  0
 25 18  2  0
 10 26  1  0
 15 27  1  6
 28 23  1  0
 29 32  1  0
 16 30  1  1
 31 18  1  0
 32 27  1  0
 33 26  1  0
 34 29  1  0
 26 35  1  6
 36 28  2  0
 37 28  1  0
 38 33  1  0
 39 36  1  0
 40 37  2  0
 41 40  1  0
 39 41  2  0
  6  9  1  0
 10 42  1  6
M  END

> <chembl_id>
CHEMBL182114

> <chembl_pref_name>
None

$$$$

     RDKit          2D

 35 36  0  0  0  0  0  0  0  0999 V2000
   15.3833    0.7750    0.0000 C   0  0  0  0  0  0  0  0  0  0  0  0
   16.8074    0.7750    0.0000 N   0  0  0  0  0  0  0  0  0  0  0  0
   16.0954    1.1917    0.0000 C   0  0  0  0  0  0  0  0  0  0  0  0
   14.6677    1.1854    0.0000 O   0  0  0  0  0  0  0  0  0  0  0  0
   16.0954    2.0167    0.0000 C   0  0  0  0  0  0  0  0  0  0  0  0
   15.3809    2.4292    0.0000 C   0  0  0  0  0  0  0  0  0  0  0  0
   15.3854    3.2552    0.0000 C   0  0  0  0  0  0  0  0  0  0  0  0
   14.6717    3.6677    0.0000 C   0  0  0  0  0  0  0  0  0  0  0  0
   13.9563    3.2551    0.0000 C   0  0  0  0  0  0  0  0  0  0  0  0
   13.9589    2.4258    0.0000 C   0  0  0  0  0  0  0  0  0  0  0  0
   14.6732    2.0172    0.0000 C   0  0  0  0  0  0  0  0  0  0  0  0
   17.5242    1.1833    0.0000 C   0  0  0  0  0  0  0  0  0  0  0  0
   18.2363    0.7666    0.0000 C   0  0  0  0  0  0  0  0  0  0  0  0
   17.5291    2.0083    0.0000 O   0  0  0  0  0  0  0  0  0  0  0  0
   18.2315   -0.0584    0.0000 N   0  0  0  0  0  0  0  0  0  0  0  0
   18.9532    1.1749    0.0000 C   0  0  0  0  0  0  0  0  0  0  0  0
   18.9580    1.9999    0.0000 C   0  0  0  0  0  0  0  0  0  0  0  0
   19.6749    2.4082    0.0000 C   0  0  0  0  0  0  0  0  0  0  0  0
   18.2460    2.4166    0.0000 C   0  0  0  0  0  0  0  0  0  0  0  0
   18.9435   -0.4750    0.0000 C   0  0  0  0  0  0  0  0  0  0  0  0
   18.9387   -1.3000    0.0000 C   0  0  0  0  0  0  0  0  0  0  0  0
   19.6604   -0.0667    0.0000 O   0  0  0  0  0  0  0  0  0  0  0  0
   18.2218   -1.7083    0.0000 C   0  0  0  0  0  0  0  0  0  0  0  0
   17.5097   -1.2917    0.0000 C   0  0  0  0  0  0  0  0  0  0  0  0
   16.7929   -1.7000    0.0000 C   0  0  0  0  0  0  0  0  0  0  0  0
   16.0808   -1.2833    0.0000 N   0  0  0  0  0  0  0  0  0  0  0  0
   15.3639   -1.6916    0.0000 C   0  0  0  0  0  0  0  0  0  0  0  0
   14.6519   -1.2749    0.0000 C   0  0  0  0  0  0  0  0  0  0  0  0
   15.3591   -2.5166    0.0000 O   0  0  0  0  0  0  0  0  0  0  0  0
   14.6567   -0.4499    0.0000 C   0  0  0  0  0  0  0  0  0  0  0  0
   15.3736   -0.0416    0.0000 S   0  0  0  0  0  0  0  0  0  0  0  0
   13.9350   -1.6832    0.0000 N   0  0  0  0  0  0  0  0  0  0  0  0
   13.2230   -1.2665    0.0000 C   0  0  0  0  0  0  0  0  0  0  0  0
   12.5061   -1.6748    0.0000 C   0  0  0  0  0  0  0  0  0  0  0  0
   13.2278   -0.4415    0.0000 O   0  0  0  0  0  0  0  0  0  0  0  0
 16 17  1  0
  1  4  2  0
 17 18  1  0
  8  9  2  0
 17 19  1  0
 15 20  1  0
  9 10  1  0
 20 21  1  0
  3  5  1  6
 20 22  2  0
 10 11  2  0
 21 23  1  0
 11  6  1  0
 23 24  1  0
  1  3  1  0
 24 25  1  0
  2 12  1  0
 25 26  1  0
  5  6  1  0
 26 27  1  0
 12 13  1  0
 28 27  1  0
  2  3  1  0
 27 29  2  0
 12 14  2  0
 28 30  1  0
  6  7  2  0
 30 31  1  0
 13 15  1  0
 28 32  1  1
  1 31  1  0
 32 33  1  0
 13 16  1  6
 33 34  1  0
  7  8  1  0
 33 35  2  0
M  END

> <chembl_id>
CHEMBL1824152

> <chembl_pref_name>
None

$$$$

     RDKit          2D

 59 62  0  0  1  0  0  0  0  0999 V2000
   -4.7223   -2.4708    0.0000 C   0  0  0  0  0  0  0  0  0  0  0  0
   -4.7234   -3.2982    0.0000 N   0  0  0  0  0  0  0  0  0  0  0  0
   -4.0086   -3.7110    0.0000 C   0  0  0  0  0  0  0  0  0  0  0  0
   -4.0104   -2.0580    0.0000 N   0  0  0  0  0  0  0  0  0  0  0  0
   -3.2950   -2.4672    0.0000 C   0  0  0  0  0  0  0  0  0  0  0  0
   -3.2948   -3.2982    0.0000 C   0  0  0  0  0  0  0  0  0  0  0  0
   -2.5043   -3.5548    0.0000 N   0  0  0  0  0  0  0  0  0  0  0  0
   -2.0160   -2.8823    0.0000 C   0  0  0  0  0  0  0  0  0  0  0  0
   -2.5047   -2.2102    0.0000 N   0  0  0  0  0  0  0  0  0  0  0  0
   -2.2500   -1.4255    0.0000 C   0  0  0  0  0  0  0  0  0  0  0  0
   -1.4686   -1.1756    0.0000 O   0  0  0  0  0  0  0  0  0  0  0  0
   -1.4689   -0.3506    0.0000 C   0  0  0  0  0  0  0  0  0  0  0  0
   -2.2536   -0.0959    0.0000 C   0  0  0  0  0  0  0  0  0  0  0  0
   -2.7382   -0.7635    0.0000 C   0  0  0  0  0  0  0  0  0  0  0  0
   -0.8016    0.1346    0.0000 C   0  0  0  0  0  0  0  0  0  0  0  0
   -0.0478   -0.2007    0.0000 O   0  0  0  0  0  0  0  0  0  0  0  0
   -2.5089    0.6887    0.0000 O   0  0  0  0  0  0  0  0  0  0  0  0
   -3.5632   -0.7666    0.0000 O   0  0  0  0  0  0  0  0  0  0  0  0
   -1.9571    1.3020    0.0000 P   0  0  0  0  0  0  0  0  0  0  0  0
   -1.3750    1.8917    0.0000 O   0  0  0  0  0  0  0  0  0  0  0  0
   -2.5575    1.8678    0.0000 O   0  0  0  0  0  0  0  0  0  0  0  0
   -1.3593    0.7334    0.0000 O   0  0  0  0  0  0  0  0  0  0  0  0
    0.6195    0.2844    0.0000 P   0  0  0  0  0  0  0  0  0  0  0  0
    1.3292    0.7042    0.0000 O   0  0  0  0  0  0  0  0  0  0  0  0
    0.1664    0.9739    0.0000 O   0  0  0  0  0  0  0  0  0  0  0  0
    1.0730   -0.4048    0.0000 O   0  0  0  0  0  0  0  0  0  0  0  0
    2.0479    0.2992    0.0000 P   0  0  0  0  0  0  0  0  0  0  0  0
    2.7583   -0.1125    0.0000 O   0  0  0  0  0  0  0  0  0  0  0  0
    2.4573    1.0155    0.0000 O   0  0  0  0  0  0  0  0  0  0  0  0
    1.6421   -0.4191    0.0000 O   0  0  0  0  0  0  0  0  0  0  0  0
    3.4735    0.2988    0.0000 C   0  0  0  0  0  0  0  0  0  0  0  0
    4.1873   -0.1149    0.0000 C   0  0  0  0  0  0  0  0  0  0  0  0
    4.8958   -0.5250    0.0000 C   0  0  0  0  0  0  0  0  0  0  0  0
    3.7738   -0.8288    0.0000 C   0  0  0  0  0  0  0  0  0  0  0  0
    4.6062    0.5959    0.0000 C   0  0  0  0  0  0  0  0  0  0  0  0
    4.8949   -1.3500    0.0000 O   0  0  0  0  0  0  0  0  0  0  0  0
    5.6108   -0.1133    0.0000 C   0  0  0  0  0  0  0  0  0  0  0  0
    6.3248   -0.5266    0.0000 N   0  0  0  0  0  0  0  0  0  0  0  0
    5.6117    0.7117    0.0000 O   0  0  0  0  0  0  0  0  0  0  0  0
    7.0397   -0.1149    0.0000 C   0  0  0  0  0  0  0  0  0  0  0  0
    7.7537   -0.5282    0.0000 C   0  0  0  0  0  0  0  0  0  0  0  0
    8.4686   -0.1165    0.0000 C   0  0  0  0  0  0  0  0  0  0  0  0
    9.1827   -0.5298    0.0000 N   0  0  0  0  0  0  0  0  0  0  0  0
    8.4696    0.7085    0.0000 O   0  0  0  0  0  0  0  0  0  0  0  0
    9.8976   -0.1181    0.0000 C   0  0  0  0  0  0  0  0  0  0  0  0
   10.6116   -0.5314    0.0000 C   0  0  0  0  0  0  0  0  0  0  0  0
   11.3265   -0.1197    0.0000 S   0  0  0  0  0  0  0  0  0  0  0  0
   -4.0084   -4.5360    0.0000 N   0  0  0  0  0  0  0  0  0  0  0  0
   12.0405   -0.5330    0.0000 C   0  0  0  0  0  0  0  0  0  0  0  0
   12.7555   -0.1213    0.0000 C   0  0  0  0  0  0  0  0  0  0  0  0
   12.0396   -1.3580    0.0000 O   0  0  0  0  0  0  0  0  0  0  0  0
   13.4695   -0.5346    0.0000 C   0  0  0  0  0  0  0  0  0  0  0  0
   14.1844   -0.1229    0.0000 C   0  0  0  0  0  0  0  0  0  0  0  0
   14.8956   -0.5391    0.0000 C   0  0  0  0  0  0  0  0  0  0  0  0
   15.6101   -0.1281    0.0000 C   0  0  0  0  0  0  0  0  0  0  0  0
   15.6114    0.6978    0.0000 C   0  0  0  0  0  0  0  0  0  0  0  0
   14.8924    1.1110    0.0000 C   0  0  0  0  0  0  0  0  0  0  0  0
   14.1809    0.6976    0.0000 C   0  0  0  0  0  0  0  0  0  0  0  0
   16.3258    1.1105    0.0000 O   0  0  0  0  0  0  0  0  0  0  0  0
 12 13  1  0
 27 29  2  0
 13 14  1  0
 27 30  1  0
 14 10  1  0
 28 31  1  0
  1  2  2  0
 31 32  1  0
 12 15  1  1
 32 33  1  0
  5  4  2  0
 32 34  1  0
 15 16  1  0
 32 35  1  0
  6  7  1  0
 33 36  1  6
 13 17  1  6
 33 37  1  0
  7  8  2  0
 37 38  1  0
 14 18  1  6
 37 39  2  0
  8  9  1  0
 38 40  1  0
 17 19  1  0
 40 41  1  0
  9  5  1  0
 41 42  1  0
 19 20  1  0
 42 43  1  0
  4  1  1  0
 42 44  2  0
 19 21  2  0
 43 45  1  0
 10  9  1  1
 45 46  1  0
 19 22  1  0
 46 47  1  0
 10 11  1  0
  3 48  1  0
 16 23  1  0
 47 49  1  0
  5  6  1  0
 49 50  1  0
 23 24  1  0
 49 51  2  0
 50 52  2  0
 23 25  2  0
 52 53  1  0
  2  3  1  0
 53 54  2  0
 23 26  1  0
 54 55  1  0
  3  6  2  0
 55 56  2  0
 24 27  1  0
 56 57  1  0
 11 12  1  0
 57 58  2  0
 58 53  1  0
 27 28  1  0
 56 59  1  0
M  END

> <chembl_id>
CHEMBL250086

> <chembl_pref_name>
None

$$$$

     RDKit          2D

 63 65  0  0  0  0  0  0  0  0999 V2000
    4.9708  -22.0833    0.0000 S   0  0  0  0  0  0  0  0  0  0  0  0
    5.6853  -21.6708    0.0000 C   0  0  0  0  0  0  0  0  0  0  0  0
    6.3998  -22.0833    0.0000 C   0  0  0  0  0  0  0  0  0  0  0  0
    7.1142  -21.6708    0.0000 N   0  0  0  0  0  0  0  0  0  0  0  0
    7.8287  -22.0833    0.0000 C   0  0  0  0  0  0  0  0  0  0  0  0
    8.5432  -21.6708    0.0000 C   0  0  0  0  0  0  0  0  0  0  0  0
    7.8287  -22.9083    0.0000 O   0  0  0  0  0  0  0  0  0  0  0  0
    9.2577  -22.0833    0.0000 C   0  0  0  0  0  0  0  0  0  0  0  0
    9.9721  -21.6708    0.0000 N   0  0  0  0  0  0  0  0  0  0  0  0
   10.6866  -22.0833    0.0000 C   0  0  0  0  0  0  0  0  0  0  0  0
   11.4011  -21.6708    0.0000 C   0  0  0  0  0  0  0  0  0  0  0  0
   10.6866  -22.9083    0.0000 O   0  0  0  0  0  0  0  0  0  0  0  0
   12.1155  -22.0833    0.0000 C   0  0  0  0  0  0  0  0  0  0  0  0
   11.4011  -20.8458    0.0000 O   0  0  0  0  0  0  0  0  0  0  0  0
   12.8300  -21.6708    0.0000 C   0  0  0  0  0  0  0  0  0  0  0  0
   11.6958  -22.7917    0.0000 C   0  0  0  0  0  0  0  0  0  0  0  0
   12.5208  -22.7917    0.0000 C   0  0  0  0  0  0  0  0  0  0  0  0
   13.5445  -22.0833    0.0000 O   0  0  0  0  0  0  0  0  0  0  0  0
   14.2590  -21.6708    0.0000 P   0  0  0  0  0  0  0  0  0  0  0  0
   14.9734  -22.0833    0.0000 O   0  0  0  0  0  0  0  0  0  0  0  0
   14.2542  -20.8417    0.0000 O   0  0  0  0  0  0  0  0  0  0  0  0
   14.2542  -22.4917    0.0000 O   0  0  0  0  0  0  0  0  0  0  0  0
   15.6879  -21.6708    0.0000 P   0  0  0  0  0  0  0  0  0  0  0  0
   16.4024  -22.0833    0.0000 O   0  0  0  0  0  0  0  0  0  0  0  0
   15.6879  -20.8458    0.0000 O   0  0  0  0  0  0  0  0  0  0  0  0
   15.6833  -22.4917    0.0000 O   0  0  0  0  0  0  0  0  0  0  0  0
   17.1168  -21.6708    0.0000 C   0  0  0  0  0  0  0  0  0  0  0  0
   17.8322  -22.0828    0.0000 C   0  0  0  0  0  0  0  0  0  0  0  0
   18.0916  -22.8634    0.0000 C   0  0  0  0  0  0  0  0  0  0  0  0
   18.9165  -22.8579    0.0000 C   0  0  0  0  0  0  0  0  0  0  0  0
   19.1663  -22.0715    0.0000 C   0  0  0  0  0  0  0  0  0  0  0  0
   18.4955  -21.5912    0.0000 O   0  0  0  0  0  0  0  0  0  0  0  0
   19.8750  -21.6542    0.0000 N   0  0  0  0  0  0  0  0  0  0  0  0
   17.6900  -23.5836    0.0000 O   0  0  0  0  0  0  0  0  0  0  0  0
   16.8651  -23.5961    0.0000 P   0  0  0  0  0  0  0  0  0  0  0  0
   16.4635  -24.3167    0.0000 O   0  0  0  0  0  0  0  0  0  0  0  0
   16.4418  -22.8880    0.0000 O   0  0  0  0  0  0  0  0  0  0  0  0
   17.3484  -24.2549    0.0000 O   0  0  0  0  0  0  0  0  0  0  0  0
   19.4059  -23.5221    0.0000 O   0  0  0  0  0  0  0  0  0  0  0  0
   20.5405  -22.1375    0.0000 C   0  0  0  0  0  0  0  0  0  0  0  0
   21.2058  -21.6539    0.0000 N   0  0  0  0  0  0  0  0  0  0  0  0
   20.1290  -20.8719    0.0000 C   0  0  0  0  0  0  0  0  0  0  0  0
   20.9524  -20.8746    0.0000 C   0  0  0  0  0  0  0  0  0  0  0  0
   21.3641  -20.1668    0.0000 C   0  0  0  0  0  0  0  0  0  0  0  0
   20.9570  -19.4518    0.0000 N   0  0  0  0  0  0  0  0  0  0  0  0
   20.1337  -19.4491    0.0000 C   0  0  0  0  0  0  0  0  0  0  0  0
   19.7173  -20.1614    0.0000 N   0  0  0  0  0  0  0  0  0  0  0  0
   22.1891  -20.1707    0.0000 N   0  0  0  0  0  0  0  0  0  0  0  0
    4.2564  -21.6708    0.0000 C   0  0  0  0  0  0  0  0  0  0  0  0
    3.5419  -22.0833    0.0000 C   0  0  0  0  0  0  0  0  0  0  0  0
    4.2564  -20.8458    0.0000 O   0  0  0  0  0  0  0  0  0  0  0  0
    2.8274  -21.6708    0.0000 C   0  0  0  0  0  0  0  0  0  0  0  0
    2.1129  -22.0833    0.0000 C   0  0  0  0  0  0  0  0  0  0  0  0
    1.3985  -21.6708    0.0000 C   0  0  0  0  0  0  0  0  0  0  0  0
    0.6840  -22.0833    0.0000 C   0  0  0  0  0  0  0  0  0  0  0  0
   -0.0305  -21.6708    0.0000 C   0  0  0  0  0  0  0  0  0  0  0  0
   -0.7449  -22.0833    0.0000 C   0  0  0  0  0  0  0  0  0  0  0  0
   -1.4594  -21.6708    0.0000 C   0  0  0  0  0  0  0  0  0  0  0  0
   -2.1678  -22.0833    0.0000 C   0  0  0  0  0  0  0  0  0  0  0  0
   -2.8838  -21.6735    0.0000 C   0  0  0  0  0  0  0  0  0  0  0  0
   -3.5967  -22.0886    0.0000 C   0  0  0  0  0  0  0  0  0  0  0  0
   -4.3127  -21.6788    0.0000 C   0  0  0  0  0  0  0  0  0  0  0  0
   -5.0257  -22.0939    0.0000 C   0  0  0  0  0  0  0  0  0  0  0  0
 31 32  1  0
 32 28  1  0
 31 33  1  1
 13 17  1  0
 29 34  1  6
  8  9  1  0
 34 35  1  0
 15 18  1  0
 35 36  1  0
  4  5  1  0
 35 37  2  0
 18 19  1  0
 35 38  1  0
  9 10  1  0
 30 39  1  6
 33 40  1  0
 19 20  1  0
  2  3  1  0
 40 41  2  0
 41 43  1  0
 42 33  1  0
 42 43  2  0
 19 21  2  0
 10 11  1  0
 19 22  1  0
  5  6  1  0
 20 23  1  0
 10 12  2  0
 42 47  1  0
 43 44  1  0
 44 45  2  0
 45 46  1  0
 46 47  2  0
 23 24  1  0
 44 48  1  0
  1  2  1  0
  1 49  1  0
 23 25  2  0
 49 50  1  0
 11 13  1  0
 49 51  2  0
 23 26  1  0
 50 52  1  0
  5  7  2  0
 52 53  1  0
 24 27  1  0
 53 54  1  0
 11 14  1  0
 54 55  1  0
 28 27  1  1
 55 56  1  0
 28 29  1  0
 56 57  1  0
  3  4  1  0
 57 58  1  0
 13 15  1  0
 58 59  1  0
  6  8  1  0
 59 60  1  0
 13 16  1  0
 60 61  1  0
 29 30  1  0
 61 62  1  0
 30 31  1  0
 62 63  1  0
M  END

> <chembl_id>
CHEMBL1949899

> <chembl_pref_name>
Tetradecanoyl-CoA

$$$$

     RDKit          2D

 67 69  0  0  0  0  0  0  0  0999 V2000
    7.2544   -4.2729    0.0000 C   0  0  0  0  0  0  0  0  0  0  0  0
    7.9703   -3.8562    0.0000 C   0  0  0  0  0  0  0  0  0  0  0  0
    8.6820   -4.2729    0.0000 N   0  0  0  0  0  0  0  0  0  0  0  0
    7.9703   -3.0312    0.0000 C   0  0  0  0  0  0  0  0  0  0  0  0
    7.2544   -2.6187    0.0000 C   0  0  0  0  0  0  0  0  0  0  0  0
    7.2544   -1.7937    0.0000 S   0  0  0  0  0  0  0  0  0  0  0  0
    6.5386   -1.3812    0.0000 C   0  0  0  0  0  0  0  0  0  0  0  0
    6.5386   -3.8562    0.0000 O   0  0  0  0  0  0  0  0  0  0  0  0
    7.2544   -5.0979    0.0000 S   0  0  0  0  0  0  0  0  0  0  0  0
    6.5386   -5.5104    0.0000 C   0  0  0  0  0  0  0  0  0  0  0  0
    6.5386   -6.3354    0.0000 C   0  0  0  0  0  0  0  0  0  0  0  0
    5.8227   -6.7479    0.0000 N   0  0  0  0  0  0  0  0  0  0  0  0
    7.2544   -6.7479    0.0000 C   0  0  0  0  0  0  0  0  0  0  0  0
    7.2544   -7.5729    0.0000 O   0  0  0  0  0  0  0  0  0  0  0  0
    7.9703   -6.3354    0.0000 N   0  0  0  0  0  0  0  0  0  0  0  0
    8.6820   -6.7479    0.0000 C   0  0  0  0  0  0  0  0  0  0  0  0
    9.3978   -6.3354    0.0000 C   0  0  0  0  0  0  0  0  0  0  0  0
    8.6820   -7.5729    0.0000 C   0  0  0  0  0  0  0  0  0  0  0  0
    9.3978   -7.9854    0.0000 C   0  0  0  0  0  0  0  0  0  0  0  0
    9.3970   -8.8100    0.0000 O   0  0  0  0  0  0  0  0  0  0  0  0
   10.1129   -7.5725    0.0000 O   0  0  0  0  0  0  0  0  0  0  0  0
   10.1095   -6.7479    0.0000 N   0  0  0  0  0  0  0  0  0  0  0  0
    9.3978   -5.5104    0.0000 O   0  0  0  0  0  0  0  0  0  0  0  0
   10.8254   -6.3354    0.0000 C   0  0  0  0  0  0  0  0  0  0  0  0
   11.5413   -6.7479    0.0000 C   0  0  0  0  0  0  0  0  0  0  0  0
   10.8254   -5.5104    0.0000 C   0  0  0  0  0  0  0  0  0  0  0  0
   11.5413   -7.5729    0.0000 C   0  0  0  0  0  0  0  0  0  0  0  0
   10.8224   -7.9834    0.0000 C   0  0  0  0  0  0  0  0  0  0  0  0
   10.8219   -8.8073    0.0000 C   0  0  0  0  0  0  0  0  0  0  0  0
   11.5385   -9.2210    0.0000 C   0  0  0  0  0  0  0  0  0  0  0  0
   12.2538   -8.8018    0.0000 C   0  0  0  0  0  0  0  0  0  0  0  0
   12.2532   -7.9800    0.0000 C   0  0  0  0  0  0  0  0  0  0  0  0
   11.5413   -5.0979    0.0000 O   0  0  0  0  0  0  0  0  0  0  0  0
    9.3978   -3.8562    0.0000 C   0  0  0  0  0  0  0  0  0  0  0  0
   10.1095   -4.2729    0.0000 C   0  0  0  0  0  0  0  0  0  0  0  0
    9.3978   -3.0312    0.0000 O   0  0  0  0  0  0  0  0  0  0  0  0
   10.8254   -3.8562    0.0000 C   0  0  0  0  0  0  0  0  0  0  0  0
   10.1018   -5.0916    0.0000 N   0  0  0  0  0  0  0  0  0  0  0  0
   11.5413   -4.2729    0.0000 C   0  0  0  0  0  0  0  0  0  0  0  0
   10.8254   -3.0312    0.0000 C   0  0  0  0  0  0  0  0  0  0  0  0
   11.5413   -2.6187    0.0000 C   0  0  0  0  0  0  0  0  0  0  0  0
    5.1110   -6.3354    0.0000 C   0  0  0  0  0  0  0  0  0  0  0  0
    4.3951   -6.7479    0.0000 C   0  0  0  0  0  0  0  0  0  0  0  0
    5.1110   -5.5104    0.0000 O   0  0  0  0  0  0  0  0  0  0  0  0
    3.6793   -6.3354    0.0000 N   0  0  0  0  0  0  0  0  0  0  0  0
    4.3951   -7.5729    0.0000 C   0  0  0  0  0  0  0  0  0  0  0  0
    3.6793   -7.9854    0.0000 C   0  0  0  0  0  0  0  0  0  0  0  0
    5.1110   -7.9854    0.0000 O   0  0  0  0  0  0  0  0  0  0  0  0
    2.9676   -6.7479    0.0000 C   0  0  0  0  0  0  0  0  0  0  0  0
    2.2517   -6.3354    0.0000 C   0  0  0  0  0  0  0  0  0  0  0  0
    2.9676   -7.5729    0.0000 O   0  0  0  0  0  0  0  0  0  0  0  0
    2.2517   -5.5104    0.0000 N   0  0  0  0  0  0  0  0  0  0  0  0
    1.5358   -6.7479    0.0000 C   0  0  0  0  0  0  0  0  0  0  0  0
    0.8241   -6.3354    0.0000 O   0  0  0  0  0  0  0  0  0  0  0  0
    1.5358   -5.0979    0.0000 C   0  0  0  0  0  0  0  0  0  0  0  0
    1.5358   -4.2729    0.0000 C   0  0  0  0  0  0  0  0  0  0  0  0
    0.8241   -5.5104    0.0000 O   0  0  0  0  0  0  0  0  0  0  0  0
    2.2517   -3.8562    0.0000 C   0  0  0  0  0  0  0  0  0  0  0  0
    0.8241   -3.8562    0.0000 N   0  0  0  0  0  0  0  0  0  0  0  0
    2.2517   -3.0312    0.0000 C   0  0  0  0  0  0  0  0  0  0  0  0
    2.9701   -2.6198    0.0000 C   0  0  0  0  0  0  0  0  0  0  0  0
    2.9706   -1.7960    0.0000 C   0  0  0  0  0  0  0  0  0  0  0  0
    2.2540   -1.3822    0.0000 C   0  0  0  0  0  0  0  0  0  0  0  0
    1.5345   -1.8015    0.0000 C   0  0  0  0  0  0  0  0  0  0  0  0
    1.5393   -2.6232    0.0000 C   0  0  0  0  0  0  0  0  0  0  0  0
    2.2523   -0.5572    0.0000 O   0  0  0  0  0  0  0  0  0  0  0  0
   10.9741   -4.7754    0.0000 H   0  0  0  0  0  0  0  0  0  0  0  0
  1  2  1  0
  2  3  1  0
  2  4  1  6
  4  5  1  0
  5  6  1  0
  6  7  1  0
  1  8  2  0
  1  9  1  0
  9 10  1  0
 10 11  1  0
 11 12  1  1
 11 13  1  0
 13 14  2  0
 13 15  1  0
 15 16  1  0
 16 17  1  0
 16 18  1  6
 18 19  1  0
 19 20  1  0
 19 21  2  0
 17 22  1  0
 17 23  2  0
 22 24  1  0
 24 25  1  6
 24 26  1  0
 25 27  1  0
 27 28  2  0
 28 29  1  0
 29 30  2  0
 30 31  1  0
 31 32  2  0
 32 27  1  0
 26 33  2  0
 26 38  1  0
  3 34  1  0
 35 34  1  0
 34 36  2  0
 35 37  1  0
 35 38  1  0
 37 39  1  6
 37 40  1  0
 40 41  1  0
 12 42  1  0
 42 43  1  0
 42 44  2  0
 43 45  1  6
 43 46  1  0
 46 47  1  6
 46 48  1  0
 45 49  1  0
 49 50  1  0
 49 51  2  0
 50 52  1  6
 50 53  1  0
 53 54  1  0
 52 55  1  0
 55 56  1  0
 55 57  2  0
 56 58  1  0
 56 59  1  1
 58 60  1  0
 60 61  2  0
 61 62  1  0
 62 63  2  0
 63 64  1  0
 64 65  2  0
 65 60  1  0
 63 66  1  0
 35 67  1  1
M  END

> <chembl_id>
CHEMBL2337554

> <chembl_pref_name>
None

$$$$

     RDKit          2D

 65 67  0  0  0  0  0  0  0  0999 V2000
   18.3002  -19.3562    0.0000 C   0  0  0  0  0  0  0  0  0  0  0  0
   19.0161  -18.9395    0.0000 C   0  0  0  0  0  0  0  0  0  0  0  0
   19.7278  -19.3562    0.0000 N   0  0  0  0  0  0  0  0  0  0  0  0
   19.0161  -18.1145    0.0000 C   0  0  0  0  0  0  0  0  0  0  0  0
   18.3002  -17.7020    0.0000 C   0  0  0  0  0  0  0  0  0  0  0  0
   18.3002  -16.8770    0.0000 S   0  0  0  0  0  0  0  0  0  0  0  0
   17.5844  -16.4645    0.0000 C   0  0  0  0  0  0  0  0  0  0  0  0
   17.5844  -18.9395    0.0000 O   0  0  0  0  0  0  0  0  0  0  0  0
   18.3002  -20.1812    0.0000 S   0  0  0  0  0  0  0  0  0  0  0  0
   17.5844  -20.5937    0.0000 C   0  0  0  0  0  0  0  0  0  0  0  0
   17.5844  -21.4187    0.0000 C   0  0  0  0  0  0  0  0  0  0  0  0
   16.8685  -21.8312    0.0000 N   0  0  0  0  0  0  0  0  0  0  0  0
   18.3002  -21.8312    0.0000 C   0  0  0  0  0  0  0  0  0  0  0  0
   18.3002  -22.6562    0.0000 O   0  0  0  0  0  0  0  0  0  0  0  0
   19.0161  -21.4187    0.0000 N   0  0  0  0  0  0  0  0  0  0  0  0
   19.7278  -21.8312    0.0000 C   0  0  0  0  0  0  0  0  0  0  0  0
   20.4437  -21.4187    0.0000 C   0  0  0  0  0  0  0  0  0  0  0  0
   19.7278  -22.6562    0.0000 C   0  0  0  0  0  0  0  0  0  0  0  0
   20.4437  -23.0687    0.0000 C   0  0  0  0  0  0  0  0  0  0  0  0
   21.1554  -21.8312    0.0000 N   0  0  0  0  0  0  0  0  0  0  0  0
   20.4437  -20.5937    0.0000 O   0  0  0  0  0  0  0  0  0  0  0  0
   21.8712  -21.4187    0.0000 C   0  0  0  0  0  0  0  0  0  0  0  0
   22.5871  -21.8312    0.0000 C   0  0  0  0  0  0  0  0  0  0  0  0
   21.8712  -20.5937    0.0000 C   0  0  0  0  0  0  0  0  0  0  0  0
   22.5871  -22.6562    0.0000 C   0  0  0  0  0  0  0  0  0  0  0  0
   21.8682  -23.0667    0.0000 C   0  0  0  0  0  0  0  0  0  0  0  0
   21.8677  -23.8906    0.0000 C   0  0  0  0  0  0  0  0  0  0  0  0
   22.5844  -24.3043    0.0000 C   0  0  0  0  0  0  0  0  0  0  0  0
   23.2997  -23.8851    0.0000 C   0  0  0  0  0  0  0  0  0  0  0  0
   23.2990  -23.0633    0.0000 C   0  0  0  0  0  0  0  0  0  0  0  0
   22.5871  -20.1812    0.0000 O   0  0  0  0  0  0  0  0  0  0  0  0
   20.4437  -18.9395    0.0000 C   0  0  0  0  0  0  0  0  0  0  0  0
   21.1554  -19.3562    0.0000 C   0  0  0  0  0  0  0  0  0  0  0  0
   20.4437  -18.1145    0.0000 O   0  0  0  0  0  0  0  0  0  0  0  0
   21.8712  -18.9395    0.0000 C   0  0  0  0  0  0  0  0  0  0  0  0
   21.1476  -20.1749    0.0000 N   0  0  0  0  0  0  0  0  0  0  0  0
   22.5871  -19.3562    0.0000 C   0  0  0  0  0  0  0  0  0  0  0  0
   21.8712  -18.1145    0.0000 C   0  0  0  0  0  0  0  0  0  0  0  0
   22.5871  -17.7020    0.0000 C   0  0  0  0  0  0  0  0  0  0  0  0
   16.1568  -21.4187    0.0000 C   0  0  0  0  0  0  0  0  0  0  0  0
   15.4410  -21.8312    0.0000 C   0  0  0  0  0  0  0  0  0  0  0  0
   16.1568  -20.5937    0.0000 O   0  0  0  0  0  0  0  0  0  0  0  0
   14.7251  -21.4187    0.0000 N   0  0  0  0  0  0  0  0  0  0  0  0
   15.4410  -22.6562    0.0000 C   0  0  0  0  0  0  0  0  0  0  0  0
   14.7251  -23.0687    0.0000 C   0  0  0  0  0  0  0  0  0  0  0  0
   16.1568  -23.0687    0.0000 O   0  0  0  0  0  0  0  0  0  0  0  0
   14.0134  -21.8312    0.0000 C   0  0  0  0  0  0  0  0  0  0  0  0
   13.2975  -21.4187    0.0000 C   0  0  0  0  0  0  0  0  0  0  0  0
   14.0134  -22.6562    0.0000 O   0  0  0  0  0  0  0  0  0  0  0  0
   13.2975  -20.5937    0.0000 N   0  0  0  0  0  0  0  0  0  0  0  0
   12.5817  -21.8312    0.0000 C   0  0  0  0  0  0  0  0  0  0  0  0
   11.8700  -21.4187    0.0000 O   0  0  0  0  0  0  0  0  0  0  0  0
   12.5817  -20.1812    0.0000 C   0  0  0  0  0  0  0  0  0  0  0  0
   12.5817  -19.3562    0.0000 C   0  0  0  0  0  0  0  0  0  0  0  0
   11.8700  -20.5937    0.0000 O   0  0  0  0  0  0  0  0  0  0  0  0
   13.2975  -18.9395    0.0000 C   0  0  0  0  0  0  0  0  0  0  0  0
   11.8700  -18.9395    0.0000 N   0  0  0  0  0  0  0  0  0  0  0  0
   13.2975  -18.1145    0.0000 C   0  0  0  0  0  0  0  0  0  0  0  0
   14.0159  -17.7032    0.0000 C   0  0  0  0  0  0  0  0  0  0  0  0
   14.0165  -16.8793    0.0000 C   0  0  0  0  0  0  0  0  0  0  0  0
   13.2998  -16.4656    0.0000 C   0  0  0  0  0  0  0  0  0  0  0  0
   12.5803  -16.8848    0.0000 C   0  0  0  0  0  0  0  0  0  0  0  0
   12.5851  -17.7066    0.0000 C   0  0  0  0  0  0  0  0  0  0  0  0
   13.2981  -15.6406    0.0000 O   0  0  0  0  0  0  0  0  0  0  0  0
   22.0199  -19.8588    0.0000 H   0  0  0  0  0  0  0  0  0  0  0  0
  1  2  1  0
  2  3  1  0
  2  4  1  6
  4  5  1  0
  5  6  1  0
  6  7  1  0
  1  8  2  0
  1  9  1  0
  9 10  1  0
 10 11  1  0
 11 12  1  1
 11 13  1  0
 13 14  2  0
 13 15  1  0
 15 16  1  0
 16 17  1  0
 16 18  1  6
 18 19  1  0
 17 20  1  0
 17 21  2  0
 20 22  1  0
 22 23  1  6
 22 24  1  0
 23 25  1  0
 25 26  2  0
 26 27  1  0
 27 28  2  0
 28 29  1  0
 29 30  2  0
 30 25  1  0
 24 31  2  0
 24 36  1  0
  3 32  1  0
 33 32  1  0
 32 34  2  0
 33 35  1  0
 33 36  1  0
 35 37  1  6
 35 38  1  0
 38 39  1  0
 12 40  1  0
 40 41  1  0
 40 42  2  0
 41 43  1  6
 41 44  1  0
 44 45  1  6
 44 46  1  0
 43 47  1  0
 47 48  1  0
 47 49  2  0
 48 50  1  6
 48 51  1  0
 51 52  1  0
 50 53  1  0
 53 54  1  0
 53 55  2  0
 54 56  1  0
 54 57  1  1
 56 58  1  0
 58 59  2  0
 59 60  1  0
 60 61  2  0
 61 62  1  0
 62 63  2  0
 63 58  1  0
 61 64  1  0
 33 65  1  1
M  END

> <chembl_id>
CHEMBL2337985

> <chembl_pref_name>
None

$$$$

     RDKit          2D

 25 24  0  0  1  0  0  0  0  0999 V2000
    3.7570    1.4992    0.0000 S   0  0  0  0  0  0  0  0  0  0  0  0
    3.4869    0.0960    0.0000 O   0  0  0  0  0  0  0  0  0  0  0  0
    5.3772   -0.9954    0.0000 O   0  0  0  0  0  0  0  0  0  0  0  0
    4.0270    2.9024    0.0000 O   0  0  0  0  0  0  0  0  0  0  0  0
    2.4067    3.2142    0.0000 O   0  0  0  0  0  0  0  0  0  0  0  0
    8.8878   -2.3986    0.0000 O   0  0  0  0  0  0  0  0  0  0  0  0
    7.5376   -2.8663    0.0000 O   0  0  0  0  0  0  0  0  0  0  0  0
    5.1072   -2.3986    0.0000 O   0  0  0  0  0  0  0  0  0  0  0  0
    3.7570   -2.8663    0.0000 O   0  0  0  0  0  0  0  0  0  0  0  0
    5.6473    0.4078    0.0000 N   0  0  0  0  0  0  0  0  0  0  0  0
    4.5671   -0.8395    0.0000 N   0  0  0  0  0  0  0  0  0  0  0  0
    8.3477   -0.8395    0.0000 N   0  0  0  0  0  0  0  0  0  0  0  0
    4.8371    0.5637    0.0000 C   0  0  0  0  0  0  0  0  0  0  0  0
    4.2971   -0.0599    0.0000 C   0  0  0  0  0  0  0  0  0  0  0  0
    4.5671    1.3433    0.0000 C   0  0  0  0  0  0  0  0  0  0  0  0
    5.9173   -0.3717    0.0000 C   0  0  0  0  0  0  0  0  0  0  0  0
    3.4869    2.2787    0.0000 C   0  0  0  0  0  0  0  0  0  0  0  0
    6.7275   -0.5277    0.0000 C   0  0  0  0  0  0  0  0  0  0  0  0
    2.6768    2.4346    0.0000 C   0  0  0  0  0  0  0  0  0  0  0  0
    7.8076   -1.4631    0.0000 C   0  0  0  0  0  0  0  0  0  0  0  0
    6.9975   -1.3072    0.0000 C   0  0  0  0  0  0  0  0  0  0  0  0
    4.0270   -1.4631    0.0000 C   0  0  0  0  0  0  0  0  0  0  0  0
    8.0777   -2.2427    0.0000 C   0  0  0  0  0  0  0  0  0  0  0  0
    4.2971   -2.2427    0.0000 C   0  0  0  0  0  0  0  0  0  0  0  0
    2.1367    1.8110    0.0000 C   0  0  0  0  0  0  0  0  0  0  0  0
  1 15  1  0
  1 17  1  0
  2 14  2  0
  3 16  2  0
  4 17  2  0
 19  5  1  6
  6 23  2  0
  7 23  1  0
  8 24  2  0
  9 24  1  0
 13 10  1  0
 10 16  1  0
 11 14  1  0
 11 22  1  0
 20 12  1  1
 13 14  1  6
 13 15  1  0
 16 18  1  0
 17 19  1  0
 18 21  1  0
 19 25  1  0
 20 21  1  0
 23 20  1  0
 22 24  1  0
M  END

> <chembl_id>
CHEMBL1966820

> <chembl_pref_name>
None

$$$$

     RDKit          2D

 68 67  0  0  1  0  0  0  0  0999 V2000
    5.3917   -1.6042    0.0000 C   0  0  0  0  0  0  0  0  0  0  0  0
    3.9667   -1.6042    0.0000 N   0  0  0  0  0  0  0  0  0  0  0  0
   10.3875   -2.0292    0.0000 N   0  0  0  0  0  0  0  0  0  0  0  0
    9.6750   -1.6167    0.0000 C   0  0  0  0  0  0  0  0  0  0  0  0
    3.2542   -2.0250    0.0000 C   0  0  0  0  0  0  0  0  0  0  0  0
    7.5292   -2.0292    0.0000 C   0  0  0  0  0  0  0  0  0  0  0  0
    1.1125   -1.6292    0.0000 C   0  0  0  0  0  0  0  0  0  0  0  0
   -1.0333   -2.0500    0.0000 C   0  0  0  0  0  0  0  0  0  0  0  0
    6.1042   -2.0250    0.0000 N   0  0  0  0  0  0  0  0  0  0  0  0
    1.8292   -2.0375    0.0000 N   0  0  0  0  0  0  0  0  0  0  0  0
    8.2500   -1.6167    0.0000 N   0  0  0  0  0  0  0  0  0  0  0  0
   -0.3208   -1.6292    0.0000 N   0  0  0  0  0  0  0  0  0  0  0  0
    4.6792   -2.0167    0.0000 C   0  0  0  0  0  0  0  0  0  0  0  0
    6.8167   -1.6125    0.0000 C   0  0  0  0  0  0  0  0  0  0  0  0
   11.1000   -1.6125    0.0000 C   0  0  0  0  0  0  0  0  0  0  0  0
    6.8250   -0.7875    0.0000 C   0  0  0  0  0  0  0  0  0  0  0  0
    8.9625   -2.0292    0.0000 C   0  0  0  0  0  0  0  0  0  0  0  0
    2.5417   -1.6167    0.0000 C   0  0  0  0  0  0  0  0  0  0  0  0
    0.4000   -2.0417    0.0000 C   0  0  0  0  0  0  0  0  0  0  0  0
   11.8167   -2.0167    0.0000 C   0  0  0  0  0  0  0  0  0  0  0  0
   -2.4583   -2.0542    0.0000 N   0  0  0  0  0  0  0  0  0  0  0  0
   -3.1750   -1.6500    0.0000 C   0  0  0  0  0  0  0  0  0  0  0  0
    7.5417   -0.3792    0.0000 C   0  0  0  0  0  0  0  0  0  0  0  0
   -1.7458   -1.6417    0.0000 C   0  0  0  0  0  0  0  0  0  0  0  0
   -1.0458    0.4250    0.0000 C   0  0  0  0  0  0  0  0  0  0  0  0
   15.3792   -1.5750    0.0000 C   0  0  0  0  0  0  0  0  0  0  0  0
    5.3917   -0.7792    0.0000 O   0  0  0  0  0  0  0  0  0  0  0  0
    9.6750   -0.7917    0.0000 O   0  0  0  0  0  0  0  0  0  0  0  0
    3.2625   -2.8500    0.0000 O   0  0  0  0  0  0  0  0  0  0  0  0
    7.5292   -2.8542    0.0000 O   0  0  0  0  0  0  0  0  0  0  0  0
    1.1042   -0.8042    0.0000 O   0  0  0  0  0  0  0  0  0  0  0  0
   -1.0250   -2.8750    0.0000 O   0  0  0  0  0  0  0  0  0  0  0  0
   11.8167   -2.8417    0.0000 O   0  0  0  0  0  0  0  0  0  0  0  0
   -3.8958   -2.0667    0.0000 C   0  0  0  0  0  0  0  0  0  0  0  0
    0.4042   -2.8667    0.0000 C   0  0  0  0  0  0  0  0  0  0  0  0
    8.9542   -2.8542    0.0000 C   0  0  0  0  0  0  0  0  0  0  0  0
    2.5292   -0.7917    0.0000 C   0  0  0  0  0  0  0  0  0  0  0  0
   -3.1833   -0.8250    0.0000 O   0  0  0  0  0  0  0  0  0  0  0  0
    8.2542   -0.7917    0.0000 O   0  0  0  0  0  0  0  0  0  0  0  0
   -1.7583    0.8333    0.0000 O   0  0  0  0  0  0  0  0  0  0  0  0
   15.3792   -0.7500    0.0000 O   0  0  0  0  0  0  0  0  0  0  0  0
   -1.7500   -0.8167    0.0000 C   0  0  0  0  0  0  0  0  0  0  0  0
   12.5250   -1.6000    0.0000 S   0  0  0  0  0  0  0  0  0  0  0  0
   14.6750   -1.9917    0.0000 N   0  0  0  0  0  0  0  0  0  0  0  0
    4.6750   -2.8417    0.0000 C   0  0  0  0  0  0  0  0  0  0  0  0
   -1.0375   -0.4000    0.0000 C   0  0  0  0  0  0  0  0  0  0  0  0
   11.0917   -0.7875    0.0000 C   0  0  0  0  0  0  0  0  0  0  0  0
   -0.3333    0.8458    0.0000 N   0  0  0  0  0  0  0  0  0  0  0  0
    7.5417    0.4458    0.0000 O   0  0  0  0  0  0  0  0  0  0  0  0
   -4.6083   -0.8292    0.0000 N   0  0  0  0  0  0  0  0  0  0  0  0
   -4.6000   -1.6542    0.0000 C   0  0  0  0  0  0  0  0  0  0  0  0
    3.2417   -0.3750    0.0000 C   0  0  0  0  0  0  0  0  0  0  0  0
    9.6750   -3.2667    0.0000 C   0  0  0  0  0  0  0  0  0  0  0  0
    1.1167   -3.2792    0.0000 C   0  0  0  0  0  0  0  0  0  0  0  0
   16.1042   -1.9792    0.0000 C   0  0  0  0  0  0  0  0  0  0  0  0
   13.2417   -2.0042    0.0000 C   0  0  0  0  0  0  0  0  0  0  0  0
   13.9542   -1.5875    0.0000 C   0  0  0  0  0  0  0  0  0  0  0  0
   11.8000   -0.3667    0.0000 C   0  0  0  0  0  0  0  0  0  0  0  0
    5.3875   -3.2542    0.0000 C   0  0  0  0  0  0  0  0  0  0  0  0
    3.9542   -3.2542    0.0000 C   0  0  0  0  0  0  0  0  0  0  0  0
   10.3667   -0.3792    0.0000 C   0  0  0  0  0  0  0  0  0  0  0  0
    1.8292   -2.8625    0.0000 C   0  0  0  0  0  0  0  0  0  0  0  0
    3.2375    0.4500    0.0000 C   0  0  0  0  0  0  0  0  0  0  0  0
    3.9625   -0.7792    0.0000 C   0  0  0  0  0  0  0  0  0  0  0  0
    1.1250   -4.1042    0.0000 C   0  0  0  0  0  0  0  0  0  0  0  0
    9.6750   -4.0917    0.0000 C   0  0  0  0  0  0  0  0  0  0  0  0
   10.3875   -2.8542    0.0000 C   0  0  0  0  0  0  0  0  0  0  0  0
   11.7917    0.4583    0.0000 C   0  0  0  0  0  0  0  0  0  0  0  0
 13  2  1  6
  3  4  1  0
  4 17  1  0
  5  2  1  0
  6 14  1  0
  7 10  1  0
  8 12  1  0
  9  1  1  0
 18 10  1  6
 11  6  1  0
 19 12  1  6
 13  1  1  0
 14  9  1  1
 15  3  1  1
 14 16  1  0
 17 11  1  1
 18  5  1  0
 19  7  1  0
 20 15  1  0
 24 21  1  1
 22 21  1  0
 23 16  1  0
 24  8  1  0
 25 46  1  0
 26 44  1  0
 27  1  2  0
 28  4  2  0
 29  5  2  0
 30  6  2  0
 31  7  2  0
 32  8  2  0
 33 20  2  0
 34 22  1  0
 19 35  1  0
 17 36  1  0
 18 37  1  0
 38 22  2  0
 39 23  2  0
 40 25  2  0
 41 26  2  0
 24 42  1  0
 43 20  1  0
 44 57  1  0
 13 45  1  0
 46 42  1  0
 15 47  1  0
 48 25  1  0
 49 23  1  0
 50 51  1  0
 51 34  1  0
 52 37  1  0
 53 36  1  0
 54 35  1  0
 55 26  1  0
 56 43  1  0
 57 56  1  0
 58 47  1  0
 59 45  1  0
 60 45  1  0
 47 61  1  1
 62 54  1  0
 63 52  1  0
 64 52  1  0
 65 54  1  0
 66 53  1  0
 67 53  1  0
 68 58  1  0
M  END

> <chembl_id>
CHEMBL2371855

> <chembl_pref_name>
None

$$$$

     RDKit          2D

 25 27  0  0  0  0  0  0  0  0999 V2000
   12.1111  -22.8146    0.0000 C   0  0  0  0  0  0  0  0  0  0  0  0
   11.4449  -22.3301    0.0000 N   0  0  0  0  0  0  0  0  0  0  0  0
   10.7790  -22.8146    0.0000 C   0  0  0  0  0  0  0  0  0  0  0  0
   11.8555  -23.5991    0.0000 C   0  0  0  0  0  0  0  0  0  0  0  0
   11.0303  -23.5991    0.0000 C   0  0  0  0  0  0  0  0  0  0  0  0
   10.7765  -24.3841    0.0000 C   0  0  0  0  0  0  0  0  0  0  0  0
   11.4449  -24.8709    0.0000 C   0  0  0  0  0  0  0  0  0  0  0  0
   12.1092  -24.3841    0.0000 C   0  0  0  0  0  0  0  0  0  0  0  0
   10.2010  -23.5949    0.0000 H   0  0  0  0  0  0  0  0  0  0  0  0
   12.6765  -23.5991    0.0000 S   0  0  0  0  0  0  0  0  0  0  0  0
   13.0913  -24.3143    0.0000 C   0  0  0  0  0  0  0  0  0  0  0  0
   13.9165  -24.3142    0.0000 C   0  0  0  0  0  0  0  0  0  0  0  0
   12.6766  -25.0294    0.0000 O   0  0  0  0  0  0  0  0  0  0  0  0
   12.8965  -22.5619    0.0000 O   0  0  0  0  0  0  0  0  0  0  0  0
    9.9938  -22.5612    0.0000 O   0  0  0  0  0  0  0  0  0  0  0  0
   14.3270  -23.5990    0.0000 C   0  0  0  0  0  0  0  0  0  0  0  0
   15.1492  -23.6017    0.0000 C   0  0  0  0  0  0  0  0  0  0  0  0
   15.5637  -22.8874    0.0000 C   0  0  0  0  0  0  0  0  0  0  0  0
   15.1490  -22.1712    0.0000 C   0  0  0  0  0  0  0  0  0  0  0  0
   14.3196  -22.1739    0.0000 C   0  0  0  0  0  0  0  0  0  0  0  0
   13.9128  -22.8889    0.0000 C   0  0  0  0  0  0  0  0  0  0  0  0
    9.9915  -24.6378    0.0000 O   0  0  0  0  0  0  0  0  0  0  0  0
    9.3772  -24.0884    0.0000 C   0  0  0  0  0  0  0  0  0  0  0  0
    8.5922  -24.3421    0.0000 C   0  0  0  0  0  0  0  0  0  0  0  0
    9.5479  -23.2811    0.0000 O   0  0  0  0  0  0  0  0  0  0  0  0
  4  1  1  0
  1  2  1  0
  2  3  1  0
  3  5  1  0
  4  5  1  0
  5  6  1  0
  6  7  1  0
  7  8  1  0
  8  4  1  0
  5  9  1  6
  4 10  1  6
 10 11  1  0
 11 12  1  0
 11 13  2  0
  1 14  2  0
  3 15  2  0
 12 16  1  0
 16 17  2  0
 17 18  1  0
 18 19  2  0
 19 20  1  0
 20 21  2  0
 21 16  1  0
  6 22  1  0
 22 23  1  0
 23 24  1  0
 23 25  2  0
M  END

> <chembl_id>
CHEMBL4073500

> <chembl_pref_name>
None

$$$$

     RDKit          2D

 57 59  0  0  0  0  0  0  0  0999 V2000
    2.7750  -10.6625    0.0000 S   0  0  0  0  0  0  0  0  0  0  0  0
    3.4895  -10.2500    0.0000 C   0  0  0  0  0  0  0  0  0  0  0  0
    4.2039  -10.6625    0.0000 C   0  0  0  0  0  0  0  0  0  0  0  0
    4.9184  -10.2500    0.0000 N   0  0  0  0  0  0  0  0  0  0  0  0
    5.6329  -10.6625    0.0000 C   0  0  0  0  0  0  0  0  0  0  0  0
    6.3474  -10.2500    0.0000 C   0  0  0  0  0  0  0  0  0  0  0  0
    5.6329  -11.4875    0.0000 O   0  0  0  0  0  0  0  0  0  0  0  0
    7.0618  -10.6625    0.0000 C   0  0  0  0  0  0  0  0  0  0  0  0
    7.7763  -10.2500    0.0000 N   0  0  0  0  0  0  0  0  0  0  0  0
    8.4908  -10.6625    0.0000 C   0  0  0  0  0  0  0  0  0  0  0  0
    9.2052  -10.2500    0.0000 C   0  0  0  0  0  0  0  0  0  0  0  0
    8.4908  -11.4875    0.0000 O   0  0  0  0  0  0  0  0  0  0  0  0
    9.9197  -10.6625    0.0000 C   0  0  0  0  0  0  0  0  0  0  0  0
    9.2052   -9.4250    0.0000 O   0  0  0  0  0  0  0  0  0  0  0  0
   10.6342  -10.2500    0.0000 C   0  0  0  0  0  0  0  0  0  0  0  0
    9.5000  -11.3708    0.0000 C   0  0  0  0  0  0  0  0  0  0  0  0
   10.3250  -11.3708    0.0000 C   0  0  0  0  0  0  0  0  0  0  0  0
   11.3487  -10.6625    0.0000 O   0  0  0  0  0  0  0  0  0  0  0  0
   12.0631  -10.2500    0.0000 P   0  0  0  0  0  0  0  0  0  0  0  0
   12.7776  -10.6625    0.0000 O   0  0  0  0  0  0  0  0  0  0  0  0
   12.0583   -9.4208    0.0000 O   0  0  0  0  0  0  0  0  0  0  0  0
   12.0583  -11.0708    0.0000 O   0  0  0  0  0  0  0  0  0  0  0  0
   13.4921  -10.2500    0.0000 P   0  0  0  0  0  0  0  0  0  0  0  0
   14.2065  -10.6625    0.0000 O   0  0  0  0  0  0  0  0  0  0  0  0
   13.4921   -9.4250    0.0000 O   0  0  0  0  0  0  0  0  0  0  0  0
   13.4875  -11.0708    0.0000 O   0  0  0  0  0  0  0  0  0  0  0  0
   14.9210  -10.2500    0.0000 C   0  0  0  0  0  0  0  0  0  0  0  0
   15.6363  -10.6619    0.0000 C   0  0  0  0  0  0  0  0  0  0  0  0
   15.8957  -11.4426    0.0000 C   0  0  0  0  0  0  0  0  0  0  0  0
   16.7207  -11.4371    0.0000 C   0  0  0  0  0  0  0  0  0  0  0  0
   16.9704  -10.6507    0.0000 C   0  0  0  0  0  0  0  0  0  0  0  0
   16.2997  -10.1704    0.0000 O   0  0  0  0  0  0  0  0  0  0  0  0
   17.6792  -10.2333    0.0000 N   0  0  0  0  0  0  0  0  0  0  0  0
   15.4942  -12.1627    0.0000 O   0  0  0  0  0  0  0  0  0  0  0  0
   14.6693  -12.1753    0.0000 P   0  0  0  0  0  0  0  0  0  0  0  0
   14.2677  -12.8959    0.0000 O   0  0  0  0  0  0  0  0  0  0  0  0
   14.2460  -11.4671    0.0000 O   0  0  0  0  0  0  0  0  0  0  0  0
   15.1526  -12.8341    0.0000 O   0  0  0  0  0  0  0  0  0  0  0  0
   17.2101  -12.1012    0.0000 O   0  0  0  0  0  0  0  0  0  0  0  0
   18.3446  -10.7166    0.0000 C   0  0  0  0  0  0  0  0  0  0  0  0
   19.0100  -10.2331    0.0000 N   0  0  0  0  0  0  0  0  0  0  0  0
   17.9332   -9.4511    0.0000 C   0  0  0  0  0  0  0  0  0  0  0  0
   18.7566   -9.4538    0.0000 C   0  0  0  0  0  0  0  0  0  0  0  0
   19.1683   -8.7460    0.0000 C   0  0  0  0  0  0  0  0  0  0  0  0
   18.7612   -8.0310    0.0000 N   0  0  0  0  0  0  0  0  0  0  0  0
   17.9378   -8.0283    0.0000 C   0  0  0  0  0  0  0  0  0  0  0  0
   17.5215   -8.7406    0.0000 N   0  0  0  0  0  0  0  0  0  0  0  0
   19.9933   -8.7498    0.0000 N   0  0  0  0  0  0  0  0  0  0  0  0
    2.0605  -10.2500    0.0000 C   0  0  0  0  0  0  0  0  0  0  0  0
    1.3461  -10.6625    0.0000 C   0  0  0  0  0  0  0  0  0  0  0  0
    2.0605   -9.4250    0.0000 O   0  0  0  0  0  0  0  0  0  0  0  0
    0.6316  -10.2500    0.0000 C   0  0  0  0  0  0  0  0  0  0  0  0
   -0.0829  -10.6625    0.0000 C   0  0  0  0  0  0  0  0  0  0  0  0
   -0.0829  -11.4875    0.0000 C   0  0  0  0  0  0  0  0  0  0  0  0
   -0.7974  -11.9000    0.0000 C   0  0  0  0  0  0  0  0  0  0  0  0
   -1.5119  -11.4875    0.0000 C   0  0  0  0  0  0  0  0  0  0  0  0
   -2.2263  -11.9000    0.0000 C   0  0  0  0  0  0  0  0  0  0  0  0
  6  8  1  0
 13 16  1  0
 29 30  1  0
 30 31  1  0
 31 32  1  0
 32 28  1  0
 31 33  1  1
 13 17  1  0
 29 34  1  6
  8  9  1  0
 34 35  1  0
 15 18  1  0
 35 36  1  0
  4  5  1  0
 35 37  2  0
 18 19  1  0
 35 38  1  0
  9 10  1  0
 30 39  1  6
 33 40  1  0
 19 20  1  0
  2  3  1  0
 40 41  2  0
 41 43  1  0
 42 33  1  0
 42 43  2  0
 19 21  2  0
 10 11  1  0
 19 22  1  0
  5  6  1  0
 20 23  1  0
 10 12  2  0
 42 47  1  0
 43 44  1  0
 44 45  2  0
 45 46  1  0
 46 47  2  0
 23 24  1  0
 44 48  1  0
  1  2  1  0
  1 49  1  0
 23 25  2  0
 49 50  1  0
 11 13  1  0
 49 51  2  0
 23 26  1  0
 50 52  1  0
  5  7  2  0
 52 53  2  0
 24 27  1  0
 11 14  1  0
 53 54  1  0
 54 55  1  0
 28 27  1  1
 55 56  1  0
 28 29  1  0
 56 57  1  0
  3  4  1  0
 13 15  1  0
M  END

> <chembl_id>
CHEMBL1949901

> <chembl_pref_name>
None

$$$$

     RDKit          2D

 23 22  0  0  1  0  0  0  0  0999 V2000
    1.6292   -1.8417    0.0000 N   0  0  0  0  0  0  0  0  0  0  0  0
   -1.1083    1.4125    0.0000 C   0  0  0  0  0  0  0  0  0  0  0  0
   -1.8208    1.0000    0.0000 N   0  0  0  0  0  0  0  0  0  0  0  0
   -2.5333    1.4083    0.0000 C   0  0  0  0  0  0  0  0  0  0  0  0
   -0.3875    1.0000    0.0000 C   0  0  0  0  0  0  0  0  0  0  0  0
   -0.3875    3.4833    0.0000 C   0  0  0  0  0  0  0  0  0  0  0  0
   -0.3875    2.6583    0.0000 S   0  0  0  0  0  0  0  0  0  0  0  0
    1.0542   -2.4292    0.0000 O   0  0  0  0  0  0  0  0  0  0  0  0
    2.4292   -2.0542    0.0000 O   0  0  0  0  0  0  0  0  0  0  0  0
   -1.1083    2.2458    0.0000 C   0  0  0  0  0  0  0  0  0  0  0  0
   -3.2458    0.9958    0.0000 O   0  0  0  0  0  0  0  0  0  0  0  0
    0.3292    1.4083    0.0000 O   0  0  0  0  0  0  0  0  0  0  0  0
   -1.1083    3.8958    0.0000 O   0  0  0  0  0  0  0  0  0  0  0  0
    1.4167   -1.0500    0.0000 O   0  0  0  0  0  0  0  0  0  0  0  0
   -0.3875    0.1708    0.0000 N   0  0  0  0  0  0  0  0  0  0  0  0
   -2.5375    2.2333    0.0000 C   0  0  0  0  0  0  0  0  0  0  0  0
    0.3250    3.8958    0.0000 C   0  0  0  0  0  0  0  0  0  0  0  0
    0.6167   -0.8375    0.0000 C   0  0  0  0  0  0  0  0  0  0  0  0
    0.4042   -0.0292    0.0000 C   0  0  0  0  0  0  0  0  0  0  0  0
   -3.2583    2.6458    0.0000 C   0  0  0  0  0  0  0  0  0  0  0  0
   -1.8250    2.6500    0.0000 C   0  0  0  0  0  0  0  0  0  0  0  0
    1.0417    3.4833    0.0000 C   0  0  0  0  0  0  0  0  0  0  0  0
    0.3250    4.7167    0.0000 C   0  0  0  0  0  0  0  0  0  0  0  0
  2  5  1  0
  3  2  1  0
  4  3  1  0
  5 15  1  0
  6  7  1  0
  7 10  1  0
  8  1  1  0
  9  1  2  0
  2 10  1  1
 11  4  2  0
 12  5  2  0
 13  6  2  0
 14  1  1  0
 15 19  1  0
 16  4  1  0
 17  6  1  0
 18 14  1  0
 19 18  1  0
 20 16  1  0
 21 16  1  0
 22 17  1  0
 23 17  1  0
M  CHG  2   1   1   8  -1
M  END

> <chembl_id>
CHEMBL290385

> <chembl_pref_name>
None

$$$$

     RDKit          2D

 68 73  0  0  0  0  0  0  0  0999 V2000
   30.2846  -22.0734    0.0000 C   0  0  0  0  0  0  0  0  0  0  0  0
   30.4968  -22.8703    0.0000 C   0  0  0  0  0  0  0  0  0  0  0  0
   31.2917  -23.0835    0.0000 C   0  0  0  0  0  0  0  0  0  0  0  0
   31.8748  -22.5006    0.0000 C   0  0  0  0  0  0  0  0  0  0  0  0
   31.6578  -21.7017    0.0000 C   0  0  0  0  0  0  0  0  0  0  0  0
   30.8635  -21.4923    0.0000 C   0  0  0  0  0  0  0  0  0  0  0  0
   24.6888  -17.5273    0.0000 C   0  0  0  0  0  0  0  0  0  0  0  0
   28.2835  -17.3012    0.0000 O   0  0  0  0  0  0  0  0  0  0  0  0
   22.4806  -18.6509    0.0000 O   0  0  0  0  0  0  0  0  0  0  0  0
   26.2493  -15.1255    0.0000 C   0  0  0  0  0  0  0  0  0  0  0  0
   29.7549  -16.5496    0.0000 C   0  0  0  0  0  0  0  0  0  0  0  0
   31.8336  -17.9002    0.0000 C   0  0  0  0  0  0  0  0  0  0  0  0
   25.5541  -14.6773    0.0000 C   0  0  0  0  0  0  0  0  0  0  0  0
   29.7115  -17.3787    0.0000 C   0  0  0  0  0  0  0  0  0  0  0  0
   24.6483  -18.3514    0.0000 C   0  0  0  0  0  0  0  0  0  0  0  0
   28.9342  -18.5745    0.0000 N   0  0  0  0  0  0  0  0  0  0  0  0
   28.9747  -17.7505    0.0000 C   0  0  0  0  0  0  0  0  0  0  0  0
   26.8971  -16.4039    0.0000 N   0  0  0  0  0  0  0  0  0  0  0  0
   25.9912  -20.0779    0.0000 C   0  0  0  0  0  0  0  0  0  0  0  0
   30.5314  -20.2749    0.0000 C   0  0  0  0  0  0  0  0  0  0  0  0
   27.4182  -20.1512    0.0000 N   0  0  0  0  0  0  0  0  0  0  0  0
   26.7675  -18.8780    0.0000 C   0  0  0  0  0  0  0  0  0  0  0  0
   28.8897  -19.3996    0.0000 C   0  0  0  0  0  0  0  0  0  0  0  0
   27.0256  -13.9257    0.0000 C   0  0  0  0  0  0  0  0  0  0  0  0
   23.2608  -17.4500    0.0000 C   0  0  0  0  0  0  0  0  0  0  0  0
   23.9126  -18.7273    0.0000 C   0  0  0  0  0  0  0  0  0  0  0  0
   29.6709  -18.2027    0.0000 O   0  0  0  0  0  0  0  0  0  0  0  0
   23.9976  -17.0782    0.0000 C   0  0  0  0  0  0  0  0  0  0  0  0
   26.8566  -17.2279    0.0000 C   0  0  0  0  0  0  0  0  0  0  0  0
   27.5032  -18.5021    0.0000 O   0  0  0  0  0  0  0  0  0  0  0  0
   29.0637  -16.1003    0.0000 S   0  0  0  0  0  0  0  0  0  0  0  0
   28.1985  -18.9503    0.0000 C   0  0  0  0  0  0  0  0  0  0  0  0
   27.6328  -16.0281    0.0000 C   0  0  0  0  0  0  0  0  0  0  0  0
   30.4067  -17.8269    0.0000 N   0  0  0  0  0  0  0  0  0  0  0  0
   27.5478  -17.6771    0.0000 O   0  0  0  0  0  0  0  0  0  0  0  0
   29.6264  -19.0278    0.0000 C   0  0  0  0  0  0  0  0  0  0  0  0
   30.3176  -19.4770    0.0000 N   0  0  0  0  0  0  0  0  0  0  0  0
   26.3344  -13.4764    0.0000 C   0  0  0  0  0  0  0  0  0  0  0  0
   26.9851  -14.7497    0.0000 C   0  0  0  0  0  0  0  0  0  0  0  0
   25.4245  -17.1515    0.0000 C   0  0  0  0  0  0  0  0  0  0  0  0
   28.7510  -20.0932    0.0000 O   0  0  0  0  0  0  0  0  0  0  0  0
   25.5986  -13.8523    0.0000 C   0  0  0  0  0  0  0  0  0  0  0  0
   31.1424  -17.4510    0.0000 C   0  0  0  0  0  0  0  0  0  0  0  0
   31.1830  -16.6269    0.0000 O   0  0  0  0  0  0  0  0  0  0  0  0
   28.3279  -16.4762    0.0000 C   0  0  0  0  0  0  0  0  0  0  0  0
   28.1507  -17.7969    0.0000 O   0  0  0  0  0  0  0  0  0  0  0  0
   26.1197  -17.5997    0.0000 C   0  0  0  0  0  0  0  0  0  0  0  0
   27.6774  -15.2030    0.0000 C   0  0  0  0  0  0  0  0  0  0  0  0
   28.1539  -19.7754    0.0000 C   0  0  0  0  0  0  0  0  0  0  0  0
   26.7270  -19.7021    0.0000 C   0  0  0  0  0  0  0  0  0  0  0  0
   26.0752  -18.4248    0.0000 N   0  0  0  0  0  0  0  0  0  0  0  0
   23.2174  -18.2790    0.0000 C   0  0  0  0  0  0  0  0  0  0  0  0
   21.7926  -18.2003    0.0000 C   0  0  0  0  0  0  0  0  0  0  0  0
   21.0585  -18.5708    0.0000 C   0  0  0  0  0  0  0  0  0  0  0  0
   21.8388  -17.3793    0.0000 C   0  0  0  0  0  0  0  0  0  0  0  0
   21.0749  -17.7860    0.0000 C   0  0  0  0  0  0  0  0  0  0  0  0
   29.9460  -20.8527    0.0000 C   0  0  0  0  0  0  0  0  0  0  0  0
   31.3251  -20.4903    0.0000 C   0  0  0  0  0  0  0  0  0  0  0  0
   29.1526  -20.6316    0.0000 C   0  0  0  0  0  0  0  0  0  0  0  0
   28.5675  -21.2086    0.0000 C   0  0  0  0  0  0  0  0  0  0  0  0
   28.7750  -22.0054    0.0000 C   0  0  0  0  0  0  0  0  0  0  0  0
   29.5728  -22.2221    0.0000 C   0  0  0  0  0  0  0  0  0  0  0  0
   30.1545  -21.6436    0.0000 C   0  0  0  0  0  0  0  0  0  0  0  0
   31.5310  -21.2848    0.0000 C   0  0  0  0  0  0  0  0  0  0  0  0
   32.3238  -21.5003    0.0000 C   0  0  0  0  0  0  0  0  0  0  0  0
   32.9082  -20.9204    0.0000 C   0  0  0  0  0  0  0  0  0  0  0  0
   32.6942  -20.1220    0.0000 C   0  0  0  0  0  0  0  0  0  0  0  0
   31.9018  -19.9101    0.0000 C   0  0  0  0  0  0  0  0  0  0  0  0
  1  2  2  0
  2  3  1  0
  3  4  2  0
  4  5  1  0
  5  6  2  0
  6  1  1  0
 15 26  1  0
 47 51  1  0
 26 52  2  0
 13 42  2  0
 34 43  1  0
 22 30  2  0
 33 48  1  1
 38 24  2  0
 52 25  1  0
 43 12  1  0
 10 13  1  0
 17 46  2  0
 42 38  1  0
 18 29  1  0
 14 17  1  0
 31 11  1  0
 40  7  1  0
 43 44  2  0
 37 20  1  0
 17 16  1  0
 11 14  1  0
 25 28  2  0
  7 15  2  0
 50 19  1  1
 51 22  1  0
 29 47  1  0
 33 18  1  0
  7 28  1  0
 45 33  1  0
 47 40  1  1
 39 10  2  0
 32 23  1  6
 23 36  1  0
 48 39  1  0
 49 41  2  0
 29 35  2  0
 21 49  1  0
  8 45  2  0
 52  9  1  0
 45 31  1  0
 39 24  1  0
 36 27  2  0
 14 34  1  6
 36 37  1  0
 16 32  1  0
 50 21  1  0
 22 50  1  0
 32 49  1  0
  9 53  1  0
 53 54  1  0
 53 55  1  0
 53 56  1  0
 20 57  1  0
 20 58  1  0
 20  6  1  0
 57 59  2  0
 59 60  1  0
 60 61  2  0
 61 62  1  0
 62 63  2  0
 63 57  1  0
 58 64  2  0
 64 65  1  0
 65 66  2  0
 66 67  1  0
 67 68  2  0
 68 58  1  0
M  END

> <chembl_id>
CHEMBL3951819

> <chembl_pref_name>
None

$$$$

     RDKit          2D

 22 22  0  0  0  0  0  0  0  0999 V2000
   -4.3740  -19.6832    0.0000 C   0  0  0  0  0  0  0  0  0  0  0  0
   -4.3753  -20.5107    0.0000 C   0  0  0  0  0  0  0  0  0  0  0  0
   -3.6623  -20.9236    0.0000 C   0  0  0  0  0  0  0  0  0  0  0  0
   -2.9431  -20.5103    0.0000 C   0  0  0  0  0  0  0  0  0  0  0  0
   -2.9461  -19.6791    0.0000 C   0  0  0  0  0  0  0  0  0  0  0  0
   -3.6643  -19.2704    0.0000 C   0  0  0  0  0  0  0  0  0  0  0  0
   -5.0837  -19.2612    0.0000 O   0  0  0  0  0  0  0  0  0  0  0  0
   -2.2282  -20.9221    0.0000 C   0  0  0  0  0  0  0  0  0  0  0  0
   -1.5141  -20.5090    0.0000 C   0  0  0  0  0  0  0  0  0  0  0  0
   -0.7993  -20.9208    0.0000 C   0  0  0  0  0  0  0  0  0  0  0  0
   -0.0852  -20.5076    0.0000 S   0  0  0  0  0  0  0  0  0  0  0  0
   -0.7986  -21.7458    0.0000 O   0  0  0  0  0  0  0  0  0  0  0  0
    0.6296  -20.9195    0.0000 C   0  0  0  0  0  0  0  0  0  0  0  0
    1.3436  -20.5063    0.0000 C   0  0  0  0  0  0  0  0  0  0  0  0
    2.0585  -20.9181    0.0000 N   0  0  0  0  0  0  0  0  0  0  0  0
    2.7726  -20.5050    0.0000 C   0  0  0  0  0  0  0  0  0  0  0  0
    3.4873  -20.9168    0.0000 C   0  0  0  0  0  0  0  0  0  0  0  0
    2.7718  -19.6800    0.0000 O   0  0  0  0  0  0  0  0  0  0  0  0
   -3.6682  -18.4454    0.0000 O   0  0  0  0  0  0  0  0  0  0  0  0
   -2.9557  -18.0296    0.0000 C   0  0  0  0  0  0  0  0  0  0  0  0
   -5.0903  -20.9222    0.0000 O   0  0  0  0  0  0  0  0  0  0  0  0
   -5.8042  -20.5087    0.0000 C   0  0  0  0  0  0  0  0  0  0  0  0
 10 11  1  0
  5  6  2  0
 10 12  2  0
  6  1  1  0
 11 13  1  0
  1  2  2  0
 13 14  1  0
  1  7  1  0
 14 15  1  0
  3  4  2  0
 15 16  1  0
  4  8  1  0
 16 17  1  0
 16 18  2  0
  8  9  2  0
  6 19  1  0
  4  5  1  0
 19 20  1  0
  9 10  1  0
  2 21  1  0
  2  3  1  0
 21 22  1  0
M  END

> <chembl_id>
CHEMBL175567

> <chembl_pref_name>
None

$$$$

     RDKit          2D

 38 39  0  0  0  0  0  0  0  0999 V2000
    6.1708  -17.5625    0.0000 C   0  0  0  0  0  0  0  0  0  0  0  0
    7.5949  -17.5625    0.0000 N   0  0  0  0  0  0  0  0  0  0  0  0
    6.8829  -17.1458    0.0000 C   0  0  0  0  0  0  0  0  0  0  0  0
    5.4552  -17.1521    0.0000 O   0  0  0  0  0  0  0  0  0  0  0  0
    6.8829  -16.3208    0.0000 C   0  0  0  0  0  0  0  0  0  0  0  0
    6.1684  -15.9083    0.0000 C   0  0  0  0  0  0  0  0  0  0  0  0
    6.1729  -15.0823    0.0000 C   0  0  0  0  0  0  0  0  0  0  0  0
    5.4592  -14.6698    0.0000 C   0  0  0  0  0  0  0  0  0  0  0  0
    4.7438  -15.0824    0.0000 C   0  0  0  0  0  0  0  0  0  0  0  0
    4.7464  -15.9117    0.0000 C   0  0  0  0  0  0  0  0  0  0  0  0
    5.4607  -16.3203    0.0000 C   0  0  0  0  0  0  0  0  0  0  0  0
    8.3117  -17.1542    0.0000 C   0  0  0  0  0  0  0  0  0  0  0  0
    9.0238  -17.5709    0.0000 C   0  0  0  0  0  0  0  0  0  0  0  0
    8.3166  -16.3292    0.0000 O   0  0  0  0  0  0  0  0  0  0  0  0
    9.0190  -18.3959    0.0000 N   0  0  0  0  0  0  0  0  0  0  0  0
    9.7407  -17.1626    0.0000 C   0  0  0  0  0  0  0  0  0  0  0  0
    9.7455  -16.3376    0.0000 C   0  0  0  0  0  0  0  0  0  0  0  0
   10.4624  -15.9293    0.0000 C   0  0  0  0  0  0  0  0  0  0  0  0
    9.0335  -15.9209    0.0000 C   0  0  0  0  0  0  0  0  0  0  0  0
    9.7310  -18.8125    0.0000 C   0  0  0  0  0  0  0  0  0  0  0  0
    9.7262  -19.6375    0.0000 C   0  0  0  0  0  0  0  0  0  0  0  0
   10.4479  -18.4042    0.0000 O   0  0  0  0  0  0  0  0  0  0  0  0
    9.0093  -20.0458    0.0000 N   0  0  0  0  0  0  0  0  0  0  0  0
   10.4382  -20.0542    0.0000 C   0  0  0  0  0  0  0  0  0  0  0  0
   11.1551  -19.6459    0.0000 O   0  0  0  0  0  0  0  0  0  0  0  0
    8.2972  -19.6292    0.0000 C   0  0  0  0  0  0  0  0  0  0  0  0
    7.5804  -20.0375    0.0000 C   0  0  0  0  0  0  0  0  0  0  0  0
    8.3021  -18.8042    0.0000 O   0  0  0  0  0  0  0  0  0  0  0  0
    6.8683  -19.6208    0.0000 N   0  0  0  0  0  0  0  0  0  0  0  0
    6.1514  -20.0291    0.0000 C   0  0  0  0  0  0  0  0  0  0  0  0
    5.4394  -19.6124    0.0000 C   0  0  0  0  0  0  0  0  0  0  0  0
    6.1466  -20.8541    0.0000 O   0  0  0  0  0  0  0  0  0  0  0  0
    5.4442  -18.7874    0.0000 C   0  0  0  0  0  0  0  0  0  0  0  0
    6.1611  -18.3791    0.0000 S   0  0  0  0  0  0  0  0  0  0  0  0
    4.7225  -20.0207    0.0000 N   0  0  0  0  0  0  0  0  0  0  0  0
    4.0105  -19.6040    0.0000 C   0  0  0  0  0  0  0  0  0  0  0  0
    3.2936  -20.0123    0.0000 C   0  0  0  0  0  0  0  0  0  0  0  0
    4.0153  -18.7790    0.0000 O   0  0  0  0  0  0  0  0  0  0  0  0
  8  9  2  0
 17 19  1  0
 15 20  1  0
  9 10  1  0
 20 21  1  0
  3  5  1  6
 20 22  2  0
 10 11  2  0
 21 23  1  0
 11  6  1  0
 21 24  1  6
  1  3  1  0
 24 25  1  0
  2 12  1  0
 23 26  1  0
  5  6  1  0
 26 27  1  0
 12 13  1  0
 26 28  2  0
  2  3  1  0
 27 29  1  0
 12 14  2  0
 29 30  1  0
  6  7  2  0
 31 30  1  0
 13 15  1  0
 30 32  2  0
  1 34  1  0
 31 33  1  0
 13 16  1  6
 33 34  1  0
  7  8  1  0
 31 35  1  1
 16 17  1  0
 35 36  1  0
  1  4  2  0
 36 37  1  0
 17 18  1  0
 36 38  2  0
M  END

> <chembl_id>
CHEMBL1823955

> <chembl_pref_name>
None

$$$$

     RDKit          2D

 33 33  0  0  0  0  0  0  0  0999 V2000
    1.6575   -5.8879    0.0000 C   0  0  0  0  0  0  0  0  0  0  0  0
    1.6563   -6.7155    0.0000 C   0  0  0  0  0  0  0  0  0  0  0  0
    2.3692   -7.1284    0.0000 C   0  0  0  0  0  0  0  0  0  0  0  0
    3.0886   -6.7150    0.0000 C   0  0  0  0  0  0  0  0  0  0  0  0
    3.0854   -5.8840    0.0000 C   0  0  0  0  0  0  0  0  0  0  0  0
    2.3672   -5.4751    0.0000 C   0  0  0  0  0  0  0  0  0  0  0  0
    0.9478   -5.4660    0.0000 O   0  0  0  0  0  0  0  0  0  0  0  0
    3.8033   -7.1268    0.0000 C   0  0  0  0  0  0  0  0  0  0  0  0
    4.5174   -6.7137    0.0000 C   0  0  0  0  0  0  0  0  0  0  0  0
    5.2323   -7.1255    0.0000 C   0  0  0  0  0  0  0  0  0  0  0  0
    5.9463   -6.7124    0.0000 S   0  0  0  0  0  0  0  0  0  0  0  0
    5.2330   -7.9505    0.0000 O   0  0  0  0  0  0  0  0  0  0  0  0
    6.6612   -7.1242    0.0000 C   0  0  0  0  0  0  0  0  0  0  0  0
    7.3753   -6.7110    0.0000 C   0  0  0  0  0  0  0  0  0  0  0  0
    8.0901   -7.1229    0.0000 N   0  0  0  0  0  0  0  0  0  0  0  0
    8.8042   -6.7098    0.0000 C   0  0  0  0  0  0  0  0  0  0  0  0
    9.5191   -7.1217    0.0000 C   0  0  0  0  0  0  0  0  0  0  0  0
    8.8034   -5.8848    0.0000 O   0  0  0  0  0  0  0  0  0  0  0  0
    0.2380   -6.7099    0.0000 C   0  0  0  0  0  0  0  0  0  0  0  0
   -0.4745   -7.1255    0.0000 C   0  0  0  0  0  0  0  0  0  0  0  0
   -0.4711   -7.9502    0.0000 C   0  0  0  0  0  0  0  0  0  0  0  0
   -1.1906   -6.7164    0.0000 C   0  0  0  0  0  0  0  0  0  0  0  0
   -1.9033   -7.1321    0.0000 C   0  0  0  0  0  0  0  0  0  0  0  0
   -2.6194   -6.7230    0.0000 C   0  0  0  0  0  0  0  0  0  0  0  0
   -3.3321   -7.1387    0.0000 C   0  0  0  0  0  0  0  0  0  0  0  0
   -4.0482   -6.7296    0.0000 C   0  0  0  0  0  0  0  0  0  0  0  0
   -3.3286   -7.9634    0.0000 C   0  0  0  0  0  0  0  0  0  0  0  0
   -4.0413   -8.3791    0.0000 C   0  0  0  0  0  0  0  0  0  0  0  0
   -4.7484   -7.9700    0.0000 C   0  0  0  0  0  0  0  0  0  0  0  0
   -5.4657   -8.3855    0.0000 C   0  0  0  0  0  0  0  0  0  0  0  0
   -5.4600   -9.2103    0.0000 C   0  0  0  0  0  0  0  0  0  0  0  0
   -6.1796   -7.9766    0.0000 C   0  0  0  0  0  0  0  0  0  0  0  0
    0.2344   -5.8849    0.0000 C   0  0  0  0  0  0  0  0  0  0  0  0
  4  8  1  0
 16 17  1  0
 16 18  2  0
  8  9  2  0
  4  5  1  0
  9 10  1  0
  2  3  1  0
 10 11  1  0
  5  6  2  0
 10 12  2  0
  6  1  1  0
 11 13  1  0
  1  2  2  0
 13 14  1  0
  1  7  1  0
 14 15  1  0
  3  4  2  0
 19 20  2  0
 20 21  1  0
 20 22  1  0
 22 23  1  0
 23 24  1  0
 24 25  2  0
 25 26  1  0
 25 27  1  0
 27 28  1  0
 28 29  1  0
 29 30  2  0
 30 31  1  0
 30 32  1  0
 15 16  1  0
 19 33  1  0
 33  7  1  0
M  END

> <chembl_id>
CHEMBL514932

> <chembl_pref_name>
None

$$$$

     RDKit          2D

 41 42  0  0  0  0  0  0  0  0999 V2000
    6.3333    0.9875    0.0000 C   0  0  0  0  0  0  0  0  0  0  0  0
    7.7574    0.9875    0.0000 N   0  0  0  0  0  0  0  0  0  0  0  0
    7.0454    1.4042    0.0000 C   0  0  0  0  0  0  0  0  0  0  0  0
    5.6177    1.3979    0.0000 O   0  0  0  0  0  0  0  0  0  0  0  0
    7.0454    2.2292    0.0000 C   0  0  0  0  0  0  0  0  0  0  0  0
    6.3309    2.6417    0.0000 C   0  0  0  0  0  0  0  0  0  0  0  0
    6.3354    3.4677    0.0000 C   0  0  0  0  0  0  0  0  0  0  0  0
    5.6217    3.8802    0.0000 C   0  0  0  0  0  0  0  0  0  0  0  0
    4.9063    3.4676    0.0000 C   0  0  0  0  0  0  0  0  0  0  0  0
    4.9089    2.6383    0.0000 C   0  0  0  0  0  0  0  0  0  0  0  0
    5.6232    2.2297    0.0000 C   0  0  0  0  0  0  0  0  0  0  0  0
    8.4742    1.3958    0.0000 C   0  0  0  0  0  0  0  0  0  0  0  0
    9.1863    0.9791    0.0000 C   0  0  0  0  0  0  0  0  0  0  0  0
    8.4791    2.2208    0.0000 O   0  0  0  0  0  0  0  0  0  0  0  0
    9.1815    0.1541    0.0000 N   0  0  0  0  0  0  0  0  0  0  0  0
    9.9032    1.3874    0.0000 C   0  0  0  0  0  0  0  0  0  0  0  0
    9.9080    2.2124    0.0000 C   0  0  0  0  0  0  0  0  0  0  0  0
   10.6249    2.6207    0.0000 C   0  0  0  0  0  0  0  0  0  0  0  0
    9.1960    2.6291    0.0000 C   0  0  0  0  0  0  0  0  0  0  0  0
    9.8935   -0.2625    0.0000 C   0  0  0  0  0  0  0  0  0  0  0  0
    9.8887   -1.0875    0.0000 C   0  0  0  0  0  0  0  0  0  0  0  0
   10.6104    0.1458    0.0000 O   0  0  0  0  0  0  0  0  0  0  0  0
    9.1718   -1.4958    0.0000 N   0  0  0  0  0  0  0  0  0  0  0  0
   10.6007   -1.5042    0.0000 C   0  0  0  0  0  0  0  0  0  0  0  0
   11.3176   -1.0959    0.0000 O   0  0  0  0  0  0  0  0  0  0  0  0
    8.4597   -1.0792    0.0000 C   0  0  0  0  0  0  0  0  0  0  0  0
    7.7429   -1.4875    0.0000 C   0  0  0  0  0  0  0  0  0  0  0  0
    8.4646   -0.2542    0.0000 O   0  0  0  0  0  0  0  0  0  0  0  0
    7.0308   -1.0708    0.0000 N   0  0  0  0  0  0  0  0  0  0  0  0
    7.7380   -2.3124    0.0000 C   0  0  0  0  0  0  0  0  0  0  0  0
    8.4501   -2.7291    0.0000 O   0  0  0  0  0  0  0  0  0  0  0  0
    6.3139   -1.4791    0.0000 C   0  0  0  0  0  0  0  0  0  0  0  0
    5.6019   -1.0624    0.0000 C   0  0  0  0  0  0  0  0  0  0  0  0
    6.3091   -2.3041    0.0000 O   0  0  0  0  0  0  0  0  0  0  0  0
    5.6067   -0.2374    0.0000 C   0  0  0  0  0  0  0  0  0  0  0  0
    6.3236    0.1709    0.0000 S   0  0  0  0  0  0  0  0  0  0  0  0
    4.8850   -1.4707    0.0000 N   0  0  0  0  0  0  0  0  0  0  0  0
    4.1730   -1.0540    0.0000 C   0  0  0  0  0  0  0  0  0  0  0  0
    3.4561   -1.4623    0.0000 C   0  0  0  0  0  0  0  0  0  0  0  0
    4.1778   -0.2290    0.0000 O   0  0  0  0  0  0  0  0  0  0  0  0
    7.7525    0.1625    0.0000 C   0  0  0  0  0  0  0  0  0  0  0  0
 15 20  1  0
  9 10  1  0
 20 21  1  0
  3  5  1  6
 20 22  2  0
 10 11  2  0
 21 23  1  0
 11  6  1  0
 21 24  1  6
  1  3  1  0
 24 25  1  0
  2 12  1  0
 23 26  1  0
  5  6  1  0
 26 27  1  0
 12 13  1  0
 26 28  2  0
  2  3  1  0
 27 29  1  0
 12 14  2  0
 27 30  1  6
  6  7  2  0
 30 31  1  0
 13 15  1  0
 29 32  1  0
  1 36  1  0
 33 32  1  0
 13 16  1  6
 32 34  2  0
  7  8  1  0
 33 35  1  0
 16 17  1  0
 35 36  1  0
  1  4  2  0
 33 37  1  1
 17 18  1  0
 37 38  1  0
  8  9  2  0
 38 39  1  0
 17 19  1  0
 38 40  2  0
  2 41  1  0
M  END

> <chembl_id>
CHEMBL1824151

> <chembl_pref_name>
None

$$$$

     RDKit          2D

 21 19  0  0  0  0  0  0  0  0999 V2000
   21.9998    0.3750    0.0000 Cl  0  0  0  0  0  0  0  0  0  0  0  0
   12.9999    0.0000    0.0000 C   0  0  0  0  0  0  0  0  0  0  0  0
   11.6999    0.7500    0.0000 C   0  0  0  0  0  0  0  0  0  0  0  0
   10.3999    0.0000    0.0000 C   0  0  0  0  0  0  0  0  0  0  0  0
    9.0999    0.7500    0.0000 C   0  0  0  0  0  0  0  0  0  0  0  0
   11.6999    1.9500    0.0000 N   0  0  0  0  0  0  0  0  0  0  0  0
   12.9999   -1.2000    0.0000 O   0  0  0  0  0  0  0  0  0  0  0  0
   14.2999    0.7500    0.0000 O   0  0  0  0  0  0  0  0  0  0  0  0
   15.5999    0.0000    0.0000 C   0  0  0  0  0  0  0  0  0  0  0  0
   16.8999    0.7500    0.0000 C   0  0  0  0  0  0  0  0  0  0  0  0
    7.7999    0.0000    0.0000 C   0  0  0  0  0  0  0  0  0  0  0  0
    6.5000    0.7500    0.0000 N   0  0  0  0  0  0  0  0  0  0  0  0
    7.7999   -1.2000    0.0000 O   0  0  0  0  0  0  0  0  0  0  0  0
    5.2000    0.0000    0.0000 C   0  0  0  0  0  0  0  0  0  0  0  0
    3.9000    0.7500    0.0000 C   0  0  0  0  0  0  0  0  0  0  0  0
    2.6000    0.0000    0.0000 S   0  0  0  0  0  0  0  0  0  0  0  0
    1.3000    0.7500    0.0000 C   0  0  0  0  0  0  0  0  0  0  0  0
    0.2606    0.1503    0.0000 O   0  0  0  0  0  0  0  0  0  0  0  0
    1.3000    1.9500    0.0000 C   0  0  0  0  0  0  0  0  0  0  0  0
   18.1999    0.0000    0.0000 C   0  0  0  0  0  0  0  0  0  0  0  0
   19.2393    0.5997    0.0000 C   0  0  0  0  0  0  0  0  0  0  0  0
  2  3  1  0
  3  4  1  0
  4  5  1  0
  3  6  1  6
  2  7  2  0
  9 10  1  0
  8  9  1  0
  2  8  1  0
 11 12  1  0
 11 13  2  0
 14 15  1  0
 17 18  2  0
 17 19  1  0
 16 17  1  0
 15 16  1  0
 12 14  1  0
  5 11  1  0
 10 20  1  0
 20 21  1  0
M  END

> <chembl_id>
CHEMBL3765182

> <chembl_pref_name>
None

$$$$

     RDKit          2D

 43 44  0  0  0  0  0  0  0  0999 V2000
   14.9586  -19.4031    0.0000 C   0  0  0  0  0  0  0  0  0  0  0  0
   16.0493  -16.0316    0.0000 O   0  0  0  0  0  0  0  0  0  0  0  0
   14.2448  -18.9927    0.0000 C   0  0  0  0  0  0  0  0  0  0  0  0
   13.5308  -15.2782    0.0000 C   0  0  0  0  0  0  0  0  0  0  0  0
   16.3864  -15.2782    0.0000 C   0  0  0  0  0  0  0  0  0  0  0  0
   12.0989  -15.2782    0.0000 C   0  0  0  0  0  0  0  0  0  0  0  0
   15.6726  -15.6928    0.0000 O   0  0  0  0  0  0  0  0  0  0  0  0
   14.9586  -14.4532    0.0000 S   0  0  0  0  0  0  0  0  0  0  0  0
   14.2448  -21.4676    0.0000 O   0  0  0  0  0  0  0  0  0  0  0  0
   17.8142  -20.2280    0.0000 O   0  0  0  0  0  0  0  0  0  0  0  0
   14.2448  -15.6928    0.0000 C   0  0  0  0  0  0  0  0  0  0  0  0
   17.1004  -15.6928    0.0000 N   0  0  0  0  0  0  0  0  0  0  0  0
   17.8142  -19.4031    0.0000 C   0  0  0  0  0  0  0  0  0  0  0  0
   17.8142  -16.1032    0.0000 C   0  0  0  0  0  0  0  0  0  0  0  0
   15.6726  -16.5178    0.0000 O   0  0  0  0  0  0  0  0  0  0  0  0
   16.3864  -14.4532    0.0000 C   0  0  0  0  0  0  0  0  0  0  0  0
   17.8142  -17.7531    0.0000 N   0  0  0  0  0  0  0  0  0  0  0  0
   14.9586  -20.2280    0.0000 C   0  0  0  0  0  0  0  0  0  0  0  0
   12.8129  -16.5178    0.0000 C   0  0  0  0  0  0  0  0  0  0  0  0
   18.5282  -16.5178    0.0000 O   0  0  0  0  0  0  0  0  0  0  0  0
   14.9586  -16.9282    0.0000 C   0  0  0  0  0  0  0  0  0  0  0  0
   16.3864  -17.7531    0.0000 C   0  0  0  0  0  0  0  0  0  0  0  0
   14.2448  -20.6426    0.0000 C   0  0  0  0  0  0  0  0  0  0  0  0
   17.8142  -15.2782    0.0000 O   0  0  0  0  0  0  0  0  0  0  0  0
   16.3864  -16.9282    0.0000 O   0  0  0  0  0  0  0  0  0  0  0  0
   17.8142  -12.8033    0.0000 O   0  0  0  0  0  0  0  0  0  0  0  0
   15.6726  -14.0429    0.0000 C   0  0  0  0  0  0  0  0  0  0  0  0
   14.9586  -15.2782    0.0000 C   0  0  0  0  0  0  0  0  0  0  0  0
   17.1004  -18.9927    0.0000 C   0  0  0  0  0  0  0  0  0  0  0  0
   17.1004  -16.5178    0.0000 C   0  0  0  0  0  0  0  0  0  0  0  0
   17.8142  -16.9282    0.0000 C   0  0  0  0  0  0  0  0  0  0  0  0
   15.6726  -18.1677    0.0000 N   0  0  0  0  0  0  0  0  0  0  0  0
   17.1004  -18.1677    0.0000 C   0  0  0  0  0  0  0  0  0  0  0  0
   16.3864  -12.8033    0.0000 C   0  0  0  0  0  0  0  0  0  0  0  0
   14.9586  -17.7531    0.0000 C   0  0  0  0  0  0  0  0  0  0  0  0
   12.8129  -15.6928    0.0000 C   0  0  0  0  0  0  0  0  0  0  0  0
   18.5282  -18.9927    0.0000 N   0  0  0  0  0  0  0  0  0  0  0  0
   17.1004  -14.0429    0.0000 N   0  0  0  0  0  0  0  0  0  0  0  0
   13.5308  -19.4031    0.0000 C   0  0  0  0  0  0  0  0  0  0  0  0
   17.1004  -13.2179    0.0000 C   0  0  0  0  0  0  0  0  0  0  0  0
   14.2448  -18.1677    0.0000 C   0  0  0  0  0  0  0  0  0  0  0  0
   13.5308  -20.2280    0.0000 C   0  0  0  0  0  0  0  0  0  0  0  0
   14.2448  -16.5178    0.0000 N   0  0  0  0  0  0  0  0  0  0  0  0
 13 37  1  0
 42 39  2  0
  4 36  1  0
 35 41  1  1
 18 23  2  0
 11  4  1  1
  8 27  1  0
 40 34  1  0
  3  1  2  0
 40 26  2  0
 17 31  1  0
 38 40  1  0
  7 28  2  0
 33 29  1  1
 28  8  1  0
 14 24  1  0
 16 38  1  6
 36 19  1  0
 22 33  1  0
  5  2  2  0
 30 31  1  0
 41  3  1  0
 13 10  2  0
 27 16  1  0
 36  6  1  0
 32 22  1  0
 16  5  1  0
 43 21  1  0
 30 14  1  6
 23 42  1  0
 23  9  1  0
  1 18  1  0
  3 39  1  0
 22 25  2  0
 21 35  1  0
 11 43  1  0
 31 20  2  0
  5 12  1  0
 29 13  1  0
 21 15  2  0
 28 11  1  0
 35 32  1  0
 33 17  1  0
 12 30  1  0
M  END

> <chembl_id>
CHEMBL3985325

> <chembl_pref_name>
None

$$$$
 
     RDKit          2D

 58 60  0  0  0  0  0  0  0  0999 V2000
   11.5087  -13.2028    0.0000 N   0  0  0  0  0  0  0  0  0  0  0  0
   12.1930  -13.6032    0.0000 C   0  0  0  0  0  0  0  0  0  0  0  0
   12.8814  -14.7877    0.0000 O   0  0  0  0  0  0  0  0  0  0  0  0
   12.1930  -14.3915    0.0000 C   0  0  0  0  0  0  0  0  0  0  0  0
   12.8814  -13.2028    0.0000 C   0  0  0  0  0  0  0  0  0  0  0  0
   11.5087  -14.7877    0.0000 N   0  0  0  0  0  0  0  0  0  0  0  0
   11.5087  -15.5760    0.0000 C   0  0  0  0  0  0  0  0  0  0  0  0
   10.1400  -15.5760    0.0000 O   0  0  0  0  0  0  0  0  0  0  0  0
   10.8243  -15.9763    0.0000 C   0  0  0  0  0  0  0  0  0  0  0  0
   12.1930  -15.9763    0.0000 C   0  0  0  0  0  0  0  0  0  0  0  0
   10.8243  -16.7646    0.0000 N   0  0  0  0  0  0  0  0  0  0  0  0
   10.1400  -17.1650    0.0000 C   0  0  0  0  0  0  0  0  0  0  0  0
   10.8243  -18.3536    0.0000 O   0  0  0  0  0  0  0  0  0  0  0  0
   10.1400  -17.9574    0.0000 C   0  0  0  0  0  0  0  0  0  0  0  0
    9.4474  -16.7646    0.0000 C   0  0  0  0  0  0  0  0  0  0  0  0
    9.4474  -15.9763    0.0000 S   0  0  0  0  0  0  0  0  0  0  0  0
    9.4474  -18.3536    0.0000 N   0  0  0  0  0  0  0  0  0  0  0  0
    9.4474  -19.1419    0.0000 C   0  0  0  0  0  0  0  0  0  0  0  0
    8.7672  -20.3306    0.0000 O   0  0  0  0  0  0  0  0  0  0  0  0
    8.7672  -19.5423    0.0000 C   0  0  0  0  0  0  0  0  0  0  0  0
   10.1400  -19.5423    0.0000 C   0  0  0  0  0  0  0  0  0  0  0  0
   10.1400  -20.3306    0.0000 C   0  0  0  0  0  0  0  0  0  0  0  0
    9.4474  -20.7309    0.0000 O   0  0  0  0  0  0  0  0  0  0  0  0
   10.8243  -20.7309    0.0000 N   0  0  0  0  0  0  0  0  0  0  0  0
    8.0829  -19.1419    0.0000 N   0  0  0  0  0  0  0  0  0  0  0  0
    7.3945  -19.5423    0.0000 C   0  0  0  0  0  0  0  0  0  0  0  0
    6.0258  -19.5423    0.0000 O   0  0  0  0  0  0  0  0  0  0  0  0
    6.7101  -19.1419    0.0000 C   0  0  0  0  0  0  0  0  0  0  0  0
    7.3945  -20.3306    0.0000 C   0  0  0  0  0  0  0  0  0  0  0  0
    6.7101  -18.3536    0.0000 N   0  0  0  0  0  0  0  0  0  0  0  0
    6.0258  -17.9574    0.0000 C   0  0  0  0  0  0  0  0  0  0  0  0
    5.3373  -16.7646    0.0000 O   0  0  0  0  0  0  0  0  0  0  0  0
    6.0258  -17.1650    0.0000 C   0  0  0  0  0  0  0  0  0  0  0  0
    5.3373  -18.3536    0.0000 C   0  0  0  0  0  0  0  0  0  0  0  0
    6.7101  -16.7646    0.0000 N   0  0  0  0  0  0  0  0  0  0  0  0
    6.7101  -15.9763    0.0000 C   0  0  0  0  0  0  0  0  0  0  0  0
    7.3945  -14.7877    0.0000 O   0  0  0  0  0  0  0  0  0  0  0  0
    7.3945  -15.5760    0.0000 C   0  0  0  0  0  0  0  0  0  0  0  0
    6.0258  -15.5760    0.0000 C   0  0  0  0  0  0  0  0  0  0  0  0
   12.8795  -12.3939    0.0000 C   0  0  0  0  0  0  0  0  0  0  0  0
   13.5780  -11.9877    0.0000 O   0  0  0  0  0  0  0  0  0  0  0  0
    4.6377  -17.9495    0.0000 C   0  0  0  0  0  0  0  0  0  0  0  0
    6.0258  -14.7671    0.0000 C   0  0  0  0  0  0  0  0  0  0  0  0
   12.1707  -11.9873    0.0000 O   0  0  0  0  0  0  0  0  0  0  0  0
   12.1883  -16.7935    0.0000 C   0  0  0  0  0  0  0  0  0  0  0  0
   12.8937  -17.2062    0.0000 C   0  0  0  0  0  0  0  0  0  0  0  0
   12.9030  -15.5718    0.0000 C   0  0  0  0  0  0  0  0  0  0  0  0
    4.6392  -17.1407    0.0000 C   0  0  0  0  0  0  0  0  0  0  0  0
    3.9404  -16.7366    0.0000 C   0  0  0  0  0  0  0  0  0  0  0  0
    3.2396  -17.1406    0.0000 C   0  0  0  0  0  0  0  0  0  0  0  0
    3.2421  -17.9527    0.0000 C   0  0  0  0  0  0  0  0  0  0  0  0
    3.9415  -18.3531    0.0000 C   0  0  0  0  0  0  0  0  0  0  0  0
    2.5314  -16.7328    0.0000 O   0  0  0  0  0  0  0  0  0  0  0  0
    6.7253  -14.3664    0.0000 C   0  0  0  0  0  0  0  0  0  0  0  0
    6.7256  -13.5582    0.0000 C   0  0  0  0  0  0  0  0  0  0  0  0
    6.0245  -13.1529    0.0000 C   0  0  0  0  0  0  0  0  0  0  0  0
    5.3216  -13.5618    0.0000 C   0  0  0  0  0  0  0  0  0  0  0  0
    5.3248  -14.3686    0.0000 C   0  0  0  0  0  0  0  0  0  0  0  0
  4  6  1  0
  9 11  1  0
 14 17  1  0
 20 25  1  0
 28 30  1  0
 33 35  1  0
  2  1  1  1
  2  4  1  0
  4  3  2  0
  2  5  1  0
  7  6  1  1
  7  9  1  0
  9  8  2  0
  7 10  1  0
 11 12  1  0
 12 14  1  0
 14 13  2  0
 12 15  1  6
 15 16  1  0
 18 17  1  1
 18 20  1  0
 20 19  2  0
 18 21  1  0
 21 22  1  0
 22 23  2  0
 22 24  1  0
 26 25  1  1
 26 28  1  0
 28 27  2  0
 26 29  1  0
 31 30  1  1
 31 33  1  0
 33 32  2  0
 31 34  1  0
 36 35  1  1
 36 38  1  0
 38 37  2  0
 36 39  1  0
 38 16  1  0
  5 40  1  0
 40 41  1  0
 34 42  1  0
 39 43  1  0
 40 44  2  0
 10 45  1  0
 45 46  1  0
 10 47  1  1
 42 48  2  0
 48 49  1  0
 49 50  2  0
 50 51  1  0
 51 52  2  0
 52 42  1  0
 50 53  1  0
 43 54  2  0
 54 55  1  0
 55 56  2  0
 56 57  1  0
 57 58  2  0
 58 43  1  0
M  END

> <chembl_id>
CHEMBL4445139

> <chembl_pref_name>
None

$$$$
 
     RDKit          2D

 57 58  0  0  0  0  0  0  0  0999 V2000
   26.6940   -6.8264    0.0000 N   0  0  0  0  0  0  0  0  0  0  0  0
   27.4017   -6.4137    0.0000 C   0  0  0  0  0  0  0  0  0  0  0  0
   28.1089   -6.8273    0.0000 C   0  0  0  0  0  0  0  0  0  0  0  0
   27.3953   -5.5924    0.0000 C   0  0  0  0  0  0  0  0  0  0  0  0
   28.1112   -5.1857    0.0000 S   0  0  0  0  0  0  0  0  0  0  0  0
   28.8292   -3.9569    0.0000 C   0  0  0  0  0  0  0  0  0  0  0  0
   28.1119   -4.3656    0.0000 C   0  0  0  0  0  0  0  0  0  0  0  0
   29.5396   -4.3742    0.0000 N   0  0  0  0  0  0  0  0  0  0  0  0
   30.9611   -4.3906    0.0000 C   0  0  0  0  0  0  0  0  0  0  0  0
   30.2529   -3.9670    0.0000 C   0  0  0  0  0  0  0  0  0  0  0  0
   28.8161   -6.4178    0.0000 N   0  0  0  0  0  0  0  0  0  0  0  0
   29.5193   -6.8319    0.0000 C   0  0  0  0  0  0  0  0  0  0  0  0
   30.2319   -6.4260    0.0000 C   0  0  0  0  0  0  0  0  0  0  0  0
   30.9337   -6.8399    0.0000 N   0  0  0  0  0  0  0  0  0  0  0  0
   31.6460   -6.4365    0.0000 C   0  0  0  0  0  0  0  0  0  0  0  0
   31.6521   -5.6188    0.0000 C   0  0  0  0  0  0  0  0  0  0  0  0
   30.9459   -5.2045    0.0000 N   0  0  0  0  0  0  0  0  0  0  0  0
   27.4018   -3.9498    0.0000 O   0  0  0  0  0  0  0  0  0  0  0  0
   30.2612   -3.1457    0.0000 O   0  0  0  0  0  0  0  0  0  0  0  0
   32.3674   -5.2162    0.0000 O   0  0  0  0  0  0  0  0  0  0  0  0
   30.2381   -5.6047    0.0000 O   0  0  0  0  0  0  0  0  0  0  0  0
   28.1071   -7.6487    0.0000 O   0  0  0  0  0  0  0  0  0  0  0  0
   29.5134   -7.6532    0.0000 C   0  0  0  0  0  0  0  0  0  0  0  0
   32.3501   -6.8555    0.0000 C   0  0  0  0  0  0  0  0  0  0  0  0
   32.3429   -7.6768    0.0000 C   0  0  0  0  0  0  0  0  0  0  0  0
   31.6795   -3.9894    0.0000 C   0  0  0  0  0  0  0  0  0  0  0  0
   31.6927   -3.1682    0.0000 C   0  0  0  0  0  0  0  0  0  0  0  0
   32.4111   -2.7711    0.0000 C   0  0  0  0  0  0  0  0  0  0  0  0
   28.8346   -3.1356    0.0000 C   0  0  0  0  0  0  0  0  0  0  0  0
   28.1255   -2.7224    0.0000 C   0  0  0  0  0  0  0  0  0  0  0  0
   30.9922   -2.7473    0.0000 C   0  0  0  0  0  0  0  0  0  0  0  0
   28.1342   -1.9031    0.0000 C   0  0  0  0  0  0  0  0  0  0  0  0
   27.4259   -1.4899    0.0000 C   0  0  0  0  0  0  0  0  0  0  0  0
   26.7125   -1.8974    0.0000 C   0  0  0  0  0  0  0  0  0  0  0  0
   26.7117   -2.7224    0.0000 C   0  0  0  0  0  0  0  0  0  0  0  0
   27.4206   -3.1319    0.0000 C   0  0  0  0  0  0  0  0  0  0  0  0
   31.6316   -8.0791    0.0000 C   0  0  0  0  0  0  0  0  0  0  0  0
   33.0469   -8.0916    0.0000 C   0  0  0  0  0  0  0  0  0  0  0  0
   26.6976   -7.6436    0.0000 C   0  0  0  0  0  0  0  0  0  0  0  0
   25.9917   -8.0553    0.0000 C   0  0  0  0  0  0  0  0  0  0  0  0
   27.4071   -8.0491    0.0000 O   0  0  0  0  0  0  0  0  0  0  0  0
   25.2822   -7.6498    0.0000 N   0  0  0  0  0  0  0  0  0  0  0  0
   25.9952   -8.8725    0.0000 C   0  0  0  0  0  0  0  0  0  0  0  0
   26.7047   -9.2780    0.0000 C   0  0  0  0  0  0  0  0  0  0  0  0
   26.7083  -10.0952    0.0000 N   0  0  0  0  0  0  0  0  0  0  0  0
   27.4106   -8.8663    0.0000 O   0  0  0  0  0  0  0  0  0  0  0  0
   24.5763   -8.0615    0.0000 C   0  0  0  0  0  0  0  0  0  0  0  0
   23.8668   -7.6560    0.0000 C   0  0  0  0  0  0  0  0  0  0  0  0
   24.5798   -8.8787    0.0000 O   0  0  0  0  0  0  0  0  0  0  0  0
   23.8632   -6.8388    0.0000 C   0  0  0  0  0  0  0  0  0  0  0  0
   23.1609   -8.0676    0.0000 N   0  0  0  0  0  0  0  0  0  0  0  0
   24.5691   -6.4271    0.0000 C   0  0  0  0  0  0  0  0  0  0  0  0
   23.1537   -6.4333    0.0000 C   0  0  0  0  0  0  0  0  0  0  0  0
   24.5656   -5.6099    0.0000 C   0  0  0  0  0  0  0  0  0  0  0  0
   22.4514   -7.6621    0.0000 C   0  0  0  0  0  0  0  0  0  0  0  0
   21.7455   -8.0738    0.0000 C   0  0  0  0  0  0  0  0  0  0  0  0
   22.4478   -6.8450    0.0000 O   0  0  0  0  0  0  0  0  0  0  0  0
  2  1  1  6
  2  3  1  0
  2  4  1  0
  3 11  1  0
  5  4  1  0
  5  7  1  0
  8  6  1  0
  6  7  1  0
  8 10  1  0
  9 17  1  0
  9 10  1  0
 11 12  1  0
 12 13  1  0
 13 14  1  0
 14 15  1  0
 15 16  1  0
 16 17  1  0
  7 18  2  0
 10 19  2  0
 16 20  2  0
 13 21  2  0
  3 22  2  0
 12 23  1  1
 15 24  1  1
 24 25  1  0
  9 26  1  1
 26 27  1  0
 27 28  1  0
  6 29  1  1
 29 30  1  0
 27 31  1  0
 30 32  2  0
 32 33  1  0
 33 34  2  0
 34 35  1  0
 35 36  2  0
 36 30  1  0
 25 37  1  0
 25 38  1  0
  1 39  1  0
 39 40  1  0
 39 41  2  0
 40 42  1  1
 40 43  1  0
 43 44  1  0
 44 45  1  0
 44 46  2  0
 42 47  1  0
 47 48  1  0
 47 49  2  0
 48 50  1  0
 48 51  1  1
 50 52  1  0
 50 53  1  6
 52 54  1  0
 51 55  1  0
 55 56  1  0
 55 57  2  0
M  END

> <chembl_id>
CHEMBL4579664

> <chembl_pref_name>
None

$$$$

     RDKit          2D

 61 62  0  0  0  0  0  0  0  0999 V2000
    2.9742   -9.9842    0.0000 N   0  0  0  0  0  0  0  0  0  0  0  0
    3.6883   -9.5748    0.0000 C   0  0  0  0  0  0  0  0  0  0  0  0
    4.3942  -10.8096    0.0000 O   0  0  0  0  0  0  0  0  0  0  0  0
    4.4014   -9.9907    0.0000 C   0  0  0  0  0  0  0  0  0  0  0  0
    5.1114   -9.5800    0.0000 N   0  0  0  0  0  0  0  0  0  0  0  0
    5.8245   -9.9959    0.0000 C   0  0  0  0  0  0  0  0  0  0  0  0
    6.5380   -8.7643    0.0000 O   0  0  0  0  0  0  0  0  0  0  0  0
    6.5406   -9.5888    0.0000 C   0  0  0  0  0  0  0  0  0  0  0  0
    5.8234  -10.8184    0.0000 C   0  0  0  0  0  0  0  0  0  0  0  0
    6.5263  -11.2265    0.0000 C   0  0  0  0  0  0  0  0  0  0  0  0
    5.1068  -11.2234    0.0000 C   0  0  0  0  0  0  0  0  0  0  0  0
    7.2501  -10.0026    0.0000 N   0  0  0  0  0  0  0  0  0  0  0  0
    7.9503   -9.5862    0.0000 C   0  0  0  0  0  0  0  0  0  0  0  0
    8.6624  -10.8246    0.0000 O   0  0  0  0  0  0  0  0  0  0  0  0
    8.6696  -10.0057    0.0000 C   0  0  0  0  0  0  0  0  0  0  0  0
    7.9575   -8.7674    0.0000 C   0  0  0  0  0  0  0  0  0  0  0  0
    8.6752   -8.3588    0.0000 C   0  0  0  0  0  0  0  0  0  0  0  0
    8.6726   -7.5342    0.0000 O   0  0  0  0  0  0  0  0  0  0  0  0
    9.3806   -8.7726    0.0000 N   0  0  0  0  0  0  0  0  0  0  0  0
    9.3795   -9.5950    0.0000 N   0  0  0  0  0  0  0  0  0  0  0  0
   10.0926  -10.0109    0.0000 C   0  0  0  0  0  0  0  0  0  0  0  0
   10.8062   -8.7793    0.0000 O   0  0  0  0  0  0  0  0  0  0  0  0
   10.0855  -10.8298    0.0000 C   0  0  0  0  0  0  0  0  0  0  0  0
   10.8026   -9.6002    0.0000 C   0  0  0  0  0  0  0  0  0  0  0  0
   11.5121  -10.0140    0.0000 N   0  0  0  0  0  0  0  0  0  0  0  0
   12.2298   -9.6054    0.0000 C   0  0  0  0  0  0  0  0  0  0  0  0
   12.9378  -10.8438    0.0000 O   0  0  0  0  0  0  0  0  0  0  0  0
   12.9413  -10.0228    0.0000 C   0  0  0  0  0  0  0  0  0  0  0  0
   12.2370   -8.7866    0.0000 C   0  0  0  0  0  0  0  0  0  0  0  0
   12.9470   -8.3759    0.0000 S   0  0  0  0  0  0  0  0  0  0  0  0
   13.6529   -9.6106    0.0000 N   0  0  0  0  0  0  0  0  0  0  0  0
   14.3706  -10.0316    0.0000 C   0  0  0  0  0  0  0  0  0  0  0  0
   15.7894  -10.0239    0.0000 O   0  0  0  0  0  0  0  0  0  0  0  0
   15.0777   -9.6140    0.0000 C   0  0  0  0  0  0  0  0  0  0  0  0
   14.3706  -10.8529    0.0000 C   0  0  0  0  0  0  0  0  0  0  0  0
   15.0748   -8.7929    0.0000 N   0  0  0  0  0  0  0  0  0  0  0  0
   15.7890   -8.3797    0.0000 C   0  0  0  0  0  0  0  0  0  0  0  0
   15.0753   -7.1481    0.0000 O   0  0  0  0  0  0  0  0  0  0  0  0
   15.7865   -7.5580    0.0000 C   0  0  0  0  0  0  0  0  0  0  0  0
   16.5002   -8.7896    0.0000 C   0  0  0  0  0  0  0  0  0  0  0  0
   17.2123   -8.3800    0.0000 O   0  0  0  0  0  0  0  0  0  0  0  0
   16.5007   -7.1448    0.0000 N   0  0  0  0  0  0  0  0  0  0  0  0
   16.4971   -6.3296    0.0000 C   0  0  0  0  0  0  0  0  0  0  0  0
   15.7807   -5.1067    0.0000 O   0  0  0  0  0  0  0  0  0  0  0  0
   15.7800   -5.9274    0.0000 C   0  0  0  0  0  0  0  0  0  0  0  0
   17.2040   -5.9142    0.0000 C   0  0  0  0  0  0  0  0  0  0  0  0
   17.1948   -5.0911    0.0000 C   0  0  0  0  0  0  0  0  0  0  0  0
   17.9053   -4.6736    0.0000 C   0  0  0  0  0  0  0  0  0  0  0  0
   16.4880   -4.6900    0.0000 C   0  0  0  0  0  0  0  0  0  0  0  0
   15.0774   -6.3426    0.0000 N   0  0  0  0  0  0  0  0  0  0  0  0
   14.3598   -5.9334    0.0000 C   0  0  0  0  0  0  0  0  0  0  0  0
   13.6459   -6.3506    0.0000 C   0  0  0  0  0  0  0  0  0  0  0  0
   14.3605   -5.1127    0.0000 C   0  0  0  0  0  0  0  0  0  0  0  0
   13.6401   -3.8849    0.0000 C   0  0  0  0  0  0  0  0  0  0  0  0
   13.6393   -4.7056    0.0000 C   0  0  0  0  0  0  0  0  0  0  0  0
   12.9332   -5.1218    0.0000 C   0  0  0  0  0  0  0  0  0  0  0  0
   12.2156   -4.7126    0.0000 C   0  0  0  0  0  0  0  0  0  0  0  0
   12.2163   -3.8920    0.0000 C   0  0  0  0  0  0  0  0  0  0  0  0
   12.9275   -3.4764    0.0000 C   0  0  0  0  0  0  0  0  0  0  0  0
   12.9431   -5.9445    0.0000 O   0  0  0  0  0  0  0  0  0  0  0  0
   13.6629  -11.2615    0.0000 O   0  0  0  0  0  0  0  0  0  0  0  0
  4  5  1  0
  8 12  1  0
 15 20  1  0
 24 25  1  0
 28 31  1  0
 34 36  1  0
 39 42  1  0
 45 50  1  0
 52 60  2  0
  1  2  1  0
  2  4  1  0
  4  3  2  0
  5  6  1  0
  6  8  1  0
  8  7  2  0
  6  9  1  6
  9 10  1  0
  9 11  1  0
 12 13  1  0
 13 15  1  0
 15 14  2  0
 13 16  1  1
 16 17  1  0
 17 18  2  0
 17 19  1  0
 20 21  1  0
 21 24  1  0
 24 22  2  0
 21 23  1  6
 26 25  1  1
 26 28  1  0
 28 27  2  0
 26 29  1  0
 29 30  1  0
 31 32  1  0
 32 34  1  0
 34 33  2  0
 32 35  1  6
 36 37  1  0
 37 39  1  0
 39 38  2  0
 37 40  1  6
 40 41  1  0
 42 43  1  0
 43 45  1  0
 45 44  2  0
 43 46  1  6
 46 47  1  0
 47 48  1  0
 47 49  1  0
 50 51  1  0
 51 52  1  0
 51 53  1  6
 53 55  1  0
 54 55  2  0
 55 56  1  0
 56 57  2  0
 57 58  1  0
 58 59  2  0
 59 54  1  0
 35 61  1  0
 30 52  1  0
M  END

> <chembl_id>
CHEMBL3289785

> <chembl_pref_name>
None

$$$$

     RDKit          2D

 20 19  0  0  1  0  0  0  0  0999 V2000
    1.5750   -0.9625    0.0000 C   0  0  0  0  0  0  0  0  0  0  0  0
    2.2917   -0.5500    0.0000 C   0  0  0  0  0  0  0  0  0  0  0  0
    0.8625   -0.5500    0.0000 N   0  0  0  0  0  0  0  0  0  0  0  0
    5.8625   -0.9625    0.0000 C   0  0  0  0  0  0  0  0  0  0  0  0
    0.1500   -0.9625    0.0000 C   0  0  0  0  0  0  0  0  0  0  0  0
    6.5792   -0.5500    0.0000 C   0  0  0  0  0  0  0  0  0  0  0  0
    2.2917    0.2750    0.0000 O   0  0  0  0  0  0  0  0  0  0  0  0
    5.8625   -1.7875    0.0000 O   0  0  0  0  0  0  0  0  0  0  0  0
    0.1500   -1.7875    0.0000 O   0  0  0  0  0  0  0  0  0  0  0  0
    3.0042   -0.9625    0.0000 N   0  0  0  0  0  0  0  0  0  0  0  0
    5.1500   -0.5500    0.0000 S   0  0  0  0  0  0  0  0  0  0  0  0
    0.8625   -2.2000    0.0000 S   0  0  0  0  0  0  0  0  0  0  0  0
    1.5750   -1.7875    0.0000 C   0  0  0  0  0  0  0  0  0  0  0  0
    6.5792    0.2750    0.0000 C   0  0  0  0  0  0  0  0  0  0  0  0
    6.5750   -1.3667    0.0000 C   0  0  0  0  0  0  0  0  0  0  0  0
    7.2917   -0.1292    0.0000 C   0  0  0  0  0  0  0  0  0  0  0  0
   -0.5708   -0.5500    0.0000 C   0  0  0  0  0  0  0  0  0  0  0  0
    3.7167   -0.5500    0.0000 C   0  0  0  0  0  0  0  0  0  0  0  0
    4.4292   -0.9625    0.0000 C   0  0  0  0  0  0  0  0  0  0  0  0
    0.8542   -1.3667    0.0000 H   0  0  0  0  0  0  0  0  0  0  0  0
  2  1  1  0
  1  3  1  6
  4 11  1  0
  5  3  1  0
  6  4  1  0
  7  2  2  0
  8  4  2  0
  9  5  2  0
 10  2  1  0
 11 19  1  0
 12 13  1  0
 13  1  1  0
 14  6  1  0
 15  6  1  0
 16  6  1  0
 17  5  1  0
 18 10  1  0
 19 18  1  0
  1 20  1  1
M  END

> <chembl_id>
CHEMBL301737

> <chembl_pref_name>
None

$$$$

     RDKit          2D

 67 66  0  0  1  0  0  0  0  0999 V2000
   10.3792   -0.8000    0.0000 N   0  0  0  0  0  0  0  0  0  0  0  0
    9.6667   -0.3875    0.0000 C   0  0  0  0  0  0  0  0  0  0  0  0
    7.5250   -0.8000    0.0000 C   0  0  0  0  0  0  0  0  0  0  0  0
    1.1042   -0.4000    0.0000 C   0  0  0  0  0  0  0  0  0  0  0  0
    3.2500   -0.7917    0.0000 C   0  0  0  0  0  0  0  0  0  0  0  0
   -1.0375   -0.8167    0.0000 C   0  0  0  0  0  0  0  0  0  0  0  0
    5.3792   -0.3792    0.0000 C   0  0  0  0  0  0  0  0  0  0  0  0
    6.0917   -0.7917    0.0000 N   0  0  0  0  0  0  0  0  0  0  0  0
    1.8167   -0.8042    0.0000 N   0  0  0  0  0  0  0  0  0  0  0  0
    8.2417   -0.3875    0.0000 N   0  0  0  0  0  0  0  0  0  0  0  0
   -0.3250   -0.4042    0.0000 N   0  0  0  0  0  0  0  0  0  0  0  0
    6.8125   -0.3792    0.0000 C   0  0  0  0  0  0  0  0  0  0  0  0
    3.9542   -0.3792    0.0000 N   0  0  0  0  0  0  0  0  0  0  0  0
   11.0917   -0.3792    0.0000 C   0  0  0  0  0  0  0  0  0  0  0  0
    6.8167    0.4458    0.0000 C   0  0  0  0  0  0  0  0  0  0  0  0
   -3.1833   -0.4167    0.0000 C   0  0  0  0  0  0  0  0  0  0  0  0
    8.9542   -0.8000    0.0000 C   0  0  0  0  0  0  0  0  0  0  0  0
    0.3917   -0.8125    0.0000 C   0  0  0  0  0  0  0  0  0  0  0  0
    2.5292   -0.3917    0.0000 C   0  0  0  0  0  0  0  0  0  0  0  0
   11.8042   -0.7875    0.0000 C   0  0  0  0  0  0  0  0  0  0  0  0
   -2.4708   -0.8292    0.0000 N   0  0  0  0  0  0  0  0  0  0  0  0
    7.5292    0.8500    0.0000 C   0  0  0  0  0  0  0  0  0  0  0  0
   -1.7583   -0.4125    0.0000 C   0  0  0  0  0  0  0  0  0  0  0  0
   -3.8958   -0.8375    0.0000 C   0  0  0  0  0  0  0  0  0  0  0  0
    4.6667   -0.7917    0.0000 C   0  0  0  0  0  0  0  0  0  0  0  0
   -1.0500    1.6583    0.0000 C   0  0  0  0  0  0  0  0  0  0  0  0
   15.3750   -0.3417    0.0000 C   0  0  0  0  0  0  0  0  0  0  0  0
    9.6667    0.4375    0.0000 O   0  0  0  0  0  0  0  0  0  0  0  0
    3.2542   -1.6167    0.0000 O   0  0  0  0  0  0  0  0  0  0  0  0
    1.1000    0.4250    0.0000 O   0  0  0  0  0  0  0  0  0  0  0  0
    7.5250   -1.6250    0.0000 O   0  0  0  0  0  0  0  0  0  0  0  0
   -1.0333   -1.6417    0.0000 O   0  0  0  0  0  0  0  0  0  0  0  0
    5.3875    0.4458    0.0000 O   0  0  0  0  0  0  0  0  0  0  0  0
   -3.1875    0.4083    0.0000 O   0  0  0  0  0  0  0  0  0  0  0  0
   11.8125   -1.6125    0.0000 O   0  0  0  0  0  0  0  0  0  0  0  0
    8.9500   -1.6250    0.0000 C   0  0  0  0  0  0  0  0  0  0  0  0
    2.5250    0.4333    0.0000 C   0  0  0  0  0  0  0  0  0  0  0  0
    0.3917   -1.6375    0.0000 C   0  0  0  0  0  0  0  0  0  0  0  0
    8.2417    0.4375    0.0000 O   0  0  0  0  0  0  0  0  0  0  0  0
   -1.7708    2.0625    0.0000 O   0  0  0  0  0  0  0  0  0  0  0  0
   15.3667    0.4833    0.0000 O   0  0  0  0  0  0  0  0  0  0  0  0
   -1.7583    0.4125    0.0000 C   0  0  0  0  0  0  0  0  0  0  0  0
   12.5167   -0.3667    0.0000 S   0  0  0  0  0  0  0  0  0  0  0  0
   14.6667   -0.7625    0.0000 N   0  0  0  0  0  0  0  0  0  0  0  0
   -1.0458    0.8333    0.0000 C   0  0  0  0  0  0  0  0  0  0  0  0
   11.0792    0.4458    0.0000 C   0  0  0  0  0  0  0  0  0  0  0  0
   -0.3375    2.0708    0.0000 N   0  0  0  0  0  0  0  0  0  0  0  0
    7.5292    1.6750    0.0000 O   0  0  0  0  0  0  0  0  0  0  0  0
   -4.6083   -0.4292    0.0000 C   0  0  0  0  0  0  0  0  0  0  0  0
   -4.6125    0.3958    0.0000 O   0  0  0  0  0  0  0  0  0  0  0  0
    9.6667   -2.0375    0.0000 C   0  0  0  0  0  0  0  0  0  0  0  0
    1.1125   -2.0500    0.0000 C   0  0  0  0  0  0  0  0  0  0  0  0
    3.2375    0.8583    0.0000 C   0  0  0  0  0  0  0  0  0  0  0  0
   16.0917   -0.7500    0.0000 C   0  0  0  0  0  0  0  0  0  0  0  0
    4.6667   -1.6167    0.0000 C   0  0  0  0  0  0  0  0  0  0  0  0
   13.2375   -0.7750    0.0000 C   0  0  0  0  0  0  0  0  0  0  0  0
   13.9417   -0.3542    0.0000 C   0  0  0  0  0  0  0  0  0  0  0  0
   11.7917    0.8625    0.0000 C   0  0  0  0  0  0  0  0  0  0  0  0
   10.3625    0.8500    0.0000 C   0  0  0  0  0  0  0  0  0  0  0  0
   -5.3208   -0.8417    0.0000 C   0  0  0  0  0  0  0  0  0  0  0  0
    9.6667   -2.8625    0.0000 C   0  0  0  0  0  0  0  0  0  0  0  0
    1.1167   -2.8750    0.0000 C   0  0  0  0  0  0  0  0  0  0  0  0
    1.8250   -1.6292    0.0000 C   0  0  0  0  0  0  0  0  0  0  0  0
   10.3792   -1.6250    0.0000 C   0  0  0  0  0  0  0  0  0  0  0  0
    3.2292    1.6833    0.0000 C   0  0  0  0  0  0  0  0  0  0  0  0
    3.9542    0.4458    0.0000 C   0  0  0  0  0  0  0  0  0  0  0  0
   11.7875    1.6875    0.0000 C   0  0  0  0  0  0  0  0  0  0  0  0
  2  1  1  0
  3 10  1  0
  4  9  1  0
  5 13  1  0
  6 11  1  0
  7  8  1  0
 12  8  1  1
 19  9  1  6
 17 10  1  1
 18 11  1  6
 12  3  1  0
 13 25  1  0
 14  1  1  1
 12 15  1  0
 16 21  1  0
 17  2  1  0
 18  4  1  0
 19  5  1  0
 20 14  1  0
 23 21  1  1
 22 15  1  0
 23  6  1  0
 24 16  1  0
 25  7  1  0
 26 45  1  0
 27 44  1  0
 28  2  2  0
 29  5  2  0
 30  4  2  0
 31  3  2  0
 32  6  2  0
 33  7  2  0
 34 16  2  0
 35 20  2  0
 17 36  1  0
 19 37  1  0
 18 38  1  0
 39 22  2  0
 40 26  2  0
 41 27  2  0
 23 42  1  0
 43 20  1  0
 44 57  1  0
 45 42  1  0
 14 46  1  0
 47 26  1  0
 48 22  1  0
 49 24  1  0
 49 50  1  1
 51 36  1  0
 52 38  1  0
 53 37  1  0
 54 27  1  0
 25 55  1  6
 56 43  1  0
 57 56  1  0
 58 46  1  0
 46 59  1  1
 60 49  1  0
 61 51  1  0
 62 52  1  0
 63 52  1  0
 64 51  1  0
 65 53  1  0
 66 53  1  0
 67 58  1  0
M  END

> <chembl_id>
CHEMBL2371852

> <chembl_pref_name>
None

$$$$

     RDKit          2D

 55 57  0  0  0  0  0  0  0  0999 V2000
    2.7750  -10.6625    0.0000 S   0  0  0  0  0  0  0  0  0  0  0  0
    3.4895  -10.2500    0.0000 C   0  0  0  0  0  0  0  0  0  0  0  0
    4.2039  -10.6625    0.0000 C   0  0  0  0  0  0  0  0  0  0  0  0
    4.9184  -10.2500    0.0000 N   0  0  0  0  0  0  0  0  0  0  0  0
    5.6329  -10.6625    0.0000 C   0  0  0  0  0  0  0  0  0  0  0  0
    6.3474  -10.2500    0.0000 C   0  0  0  0  0  0  0  0  0  0  0  0
    5.6329  -11.4875    0.0000 O   0  0  0  0  0  0  0  0  0  0  0  0
    7.0618  -10.6625    0.0000 C   0  0  0  0  0  0  0  0  0  0  0  0
    7.7763  -10.2500    0.0000 N   0  0  0  0  0  0  0  0  0  0  0  0
    8.4908  -10.6625    0.0000 C   0  0  0  0  0  0  0  0  0  0  0  0
    9.2052  -10.2500    0.0000 C   0  0  0  0  0  0  0  0  0  0  0  0
    8.4908  -11.4875    0.0000 O   0  0  0  0  0  0  0  0  0  0  0  0
    9.9197  -10.6625    0.0000 C   0  0  0  0  0  0  0  0  0  0  0  0
    9.2052   -9.4250    0.0000 O   0  0  0  0  0  0  0  0  0  0  0  0
   10.6342  -10.2500    0.0000 C   0  0  0  0  0  0  0  0  0  0  0  0
    9.5000  -11.3708    0.0000 C   0  0  0  0  0  0  0  0  0  0  0  0
   10.3250  -11.3708    0.0000 C   0  0  0  0  0  0  0  0  0  0  0  0
   11.3487  -10.6625    0.0000 O   0  0  0  0  0  0  0  0  0  0  0  0
   12.0631  -10.2500    0.0000 P   0  0  0  0  0  0  0  0  0  0  0  0
   12.7776  -10.6625    0.0000 O   0  0  0  0  0  0  0  0  0  0  0  0
   12.0583   -9.4208    0.0000 O   0  0  0  0  0  0  0  0  0  0  0  0
   12.0583  -11.0708    0.0000 O   0  0  0  0  0  0  0  0  0  0  0  0
   13.4921  -10.2500    0.0000 P   0  0  0  0  0  0  0  0  0  0  0  0
   14.2065  -10.6625    0.0000 O   0  0  0  0  0  0  0  0  0  0  0  0
   13.4921   -9.4250    0.0000 O   0  0  0  0  0  0  0  0  0  0  0  0
   13.4875  -11.0708    0.0000 O   0  0  0  0  0  0  0  0  0  0  0  0
   14.9210  -10.2500    0.0000 C   0  0  0  0  0  0  0  0  0  0  0  0
   15.6363  -10.6619    0.0000 C   0  0  0  0  0  0  0  0  0  0  0  0
   15.8957  -11.4426    0.0000 C   0  0  0  0  0  0  0  0  0  0  0  0
   16.7207  -11.4371    0.0000 C   0  0  0  0  0  0  0  0  0  0  0  0
   16.9704  -10.6507    0.0000 C   0  0  0  0  0  0  0  0  0  0  0  0
   16.2997  -10.1704    0.0000 O   0  0  0  0  0  0  0  0  0  0  0  0
   17.6792  -10.2333    0.0000 N   0  0  0  0  0  0  0  0  0  0  0  0
   15.4942  -12.1627    0.0000 O   0  0  0  0  0  0  0  0  0  0  0  0
   14.6693  -12.1753    0.0000 P   0  0  0  0  0  0  0  0  0  0  0  0
   14.2677  -12.8959    0.0000 O   0  0  0  0  0  0  0  0  0  0  0  0
   14.2460  -11.4671    0.0000 O   0  0  0  0  0  0  0  0  0  0  0  0
   15.1526  -12.8341    0.0000 O   0  0  0  0  0  0  0  0  0  0  0  0
   17.2101  -12.1012    0.0000 O   0  0  0  0  0  0  0  0  0  0  0  0
   18.3446  -10.7166    0.0000 C   0  0  0  0  0  0  0  0  0  0  0  0
   19.0100  -10.2331    0.0000 N   0  0  0  0  0  0  0  0  0  0  0  0
   17.9332   -9.4511    0.0000 C   0  0  0  0  0  0  0  0  0  0  0  0
   18.7566   -9.4538    0.0000 C   0  0  0  0  0  0  0  0  0  0  0  0
   19.1683   -8.7460    0.0000 C   0  0  0  0  0  0  0  0  0  0  0  0
   18.7612   -8.0310    0.0000 N   0  0  0  0  0  0  0  0  0  0  0  0
   17.9378   -8.0283    0.0000 C   0  0  0  0  0  0  0  0  0  0  0  0
   17.5215   -8.7406    0.0000 N   0  0  0  0  0  0  0  0  0  0  0  0
   19.9933   -8.7498    0.0000 N   0  0  0  0  0  0  0  0  0  0  0  0
    2.0605  -10.2500    0.0000 C   0  0  0  0  0  0  0  0  0  0  0  0
    1.3461  -10.6625    0.0000 C   0  0  0  0  0  0  0  0  0  0  0  0
    2.0605   -9.4250    0.0000 O   0  0  0  0  0  0  0  0  0  0  0  0
    0.6316  -10.2500    0.0000 C   0  0  0  0  0  0  0  0  0  0  0  0
   -0.0829  -10.6625    0.0000 C   0  0  0  0  0  0  0  0  0  0  0  0
   -0.0829  -11.4875    0.0000 C   0  0  0  0  0  0  0  0  0  0  0  0
   -0.7974  -11.9000    0.0000 C   0  0  0  0  0  0  0  0  0  0  0  0
  3  4  1  0
 13 15  1  0
  6  8  1  0
 13 16  1  0
 29 30  1  0
 30 31  1  0
 31 32  1  0
 32 28  1  0
 31 33  1  1
 13 17  1  0
 29 34  1  6
  8  9  1  0
 34 35  1  0
 15 18  1  0
 35 36  1  0
  4  5  1  0
 35 37  2  0
 18 19  1  0
 35 38  1  0
  9 10  1  0
 30 39  1  6
 33 40  1  0
 19 20  1  0
  2  3  1  0
 40 41  2  0
 41 43  1  0
 42 33  1  0
 42 43  2  0
 19 21  2  0
 10 11  1  0
 19 22  1  0
  5  6  1  0
 20 23  1  0
 10 12  2  0
 42 47  1  0
 43 44  1  0
 44 45  2  0
 45 46  1  0
 46 47  2  0
 23 24  1  0
 44 48  1  0
  1  2  1  0
  1 49  1  0
 23 25  2  0
 49 50  1  0
 11 13  1  0
 49 51  2  0
 23 26  1  0
 50 52  1  0
  5  7  2  0
 52 53  2  0
 24 27  1  0
 11 14  1  0
 53 54  1  0
 54 55  1  0
 28 27  1  1
 28 29  1  0
M  END

> <chembl_id>
CHEMBL1949900

> <chembl_pref_name>
None

$$$$

     RDKit          2D

 59 61  0  0  0  0  0  0  0  0999 V2000
    2.1458  -13.2792    0.0000 S   0  0  0  0  0  0  0  0  0  0  0  0
    2.8603  -12.8667    0.0000 C   0  0  0  0  0  0  0  0  0  0  0  0
    3.5748  -13.2792    0.0000 C   0  0  0  0  0  0  0  0  0  0  0  0
    4.2892  -12.8667    0.0000 N   0  0  0  0  0  0  0  0  0  0  0  0
    5.0037  -13.2792    0.0000 C   0  0  0  0  0  0  0  0  0  0  0  0
    5.7182  -12.8667    0.0000 C   0  0  0  0  0  0  0  0  0  0  0  0
    5.0037  -14.1042    0.0000 O   0  0  0  0  0  0  0  0  0  0  0  0
    6.4327  -13.2792    0.0000 C   0  0  0  0  0  0  0  0  0  0  0  0
    7.1471  -12.8667    0.0000 N   0  0  0  0  0  0  0  0  0  0  0  0
    7.8616  -13.2792    0.0000 C   0  0  0  0  0  0  0  0  0  0  0  0
    8.5761  -12.8667    0.0000 C   0  0  0  0  0  0  0  0  0  0  0  0
    7.8616  -14.1042    0.0000 O   0  0  0  0  0  0  0  0  0  0  0  0
    9.2905  -13.2792    0.0000 C   0  0  0  0  0  0  0  0  0  0  0  0
    8.5761  -12.0417    0.0000 O   0  0  0  0  0  0  0  0  0  0  0  0
   10.0050  -12.8667    0.0000 C   0  0  0  0  0  0  0  0  0  0  0  0
    8.8708  -13.9875    0.0000 C   0  0  0  0  0  0  0  0  0  0  0  0
    9.6958  -13.9875    0.0000 C   0  0  0  0  0  0  0  0  0  0  0  0
   10.7195  -13.2792    0.0000 O   0  0  0  0  0  0  0  0  0  0  0  0
   11.4340  -12.8667    0.0000 P   0  0  0  0  0  0  0  0  0  0  0  0
   12.1484  -13.2792    0.0000 O   0  0  0  0  0  0  0  0  0  0  0  0
   11.4292  -12.0375    0.0000 O   0  0  0  0  0  0  0  0  0  0  0  0
   11.4292  -13.6875    0.0000 O   0  0  0  0  0  0  0  0  0  0  0  0
   12.8629  -12.8667    0.0000 P   0  0  0  0  0  0  0  0  0  0  0  0
   13.5774  -13.2792    0.0000 O   0  0  0  0  0  0  0  0  0  0  0  0
   12.8629  -12.0417    0.0000 O   0  0  0  0  0  0  0  0  0  0  0  0
   12.8583  -13.6875    0.0000 O   0  0  0  0  0  0  0  0  0  0  0  0
   14.2918  -12.8667    0.0000 C   0  0  0  0  0  0  0  0  0  0  0  0
   15.0072  -13.2786    0.0000 C   0  0  0  0  0  0  0  0  0  0  0  0
   15.2666  -14.0592    0.0000 C   0  0  0  0  0  0  0  0  0  0  0  0
   16.0915  -14.0537    0.0000 C   0  0  0  0  0  0  0  0  0  0  0  0
   16.3413  -13.2674    0.0000 C   0  0  0  0  0  0  0  0  0  0  0  0
   15.6705  -12.7870    0.0000 O   0  0  0  0  0  0  0  0  0  0  0  0
   17.0500  -12.8500    0.0000 N   0  0  0  0  0  0  0  0  0  0  0  0
   14.8650  -14.7794    0.0000 O   0  0  0  0  0  0  0  0  0  0  0  0
   14.0401  -14.7919    0.0000 P   0  0  0  0  0  0  0  0  0  0  0  0
   13.6385  -15.5126    0.0000 O   0  0  0  0  0  0  0  0  0  0  0  0
   13.6168  -14.0838    0.0000 O   0  0  0  0  0  0  0  0  0  0  0  0
   14.5234  -15.4508    0.0000 O   0  0  0  0  0  0  0  0  0  0  0  0
   16.5809  -14.7179    0.0000 O   0  0  0  0  0  0  0  0  0  0  0  0
   17.7155  -13.3333    0.0000 C   0  0  0  0  0  0  0  0  0  0  0  0
   18.3808  -12.8497    0.0000 N   0  0  0  0  0  0  0  0  0  0  0  0
   17.3040  -12.0678    0.0000 C   0  0  0  0  0  0  0  0  0  0  0  0
   18.1274  -12.0705    0.0000 C   0  0  0  0  0  0  0  0  0  0  0  0
   18.5391  -11.3627    0.0000 C   0  0  0  0  0  0  0  0  0  0  0  0
   18.1320  -10.6476    0.0000 N   0  0  0  0  0  0  0  0  0  0  0  0
   17.3087  -10.6449    0.0000 C   0  0  0  0  0  0  0  0  0  0  0  0
   16.8923  -11.3573    0.0000 N   0  0  0  0  0  0  0  0  0  0  0  0
   19.3641  -11.3665    0.0000 N   0  0  0  0  0  0  0  0  0  0  0  0
    1.4314  -12.8667    0.0000 C   0  0  0  0  0  0  0  0  0  0  0  0
    0.7169  -13.2792    0.0000 C   0  0  0  0  0  0  0  0  0  0  0  0
    1.4314  -12.0417    0.0000 O   0  0  0  0  0  0  0  0  0  0  0  0
    0.0024  -12.8667    0.0000 C   0  0  0  0  0  0  0  0  0  0  0  0
   -0.7121  -13.2792    0.0000 C   0  0  0  0  0  0  0  0  0  0  0  0
   -1.4265  -12.8667    0.0000 C   0  0  0  0  0  0  0  0  0  0  0  0
   -2.1410  -13.2792    0.0000 C   0  0  0  0  0  0  0  0  0  0  0  0
   -2.8555  -12.8667    0.0000 C   0  0  0  0  0  0  0  0  0  0  0  0
   -3.5699  -13.2792    0.0000 C   0  0  0  0  0  0  0  0  0  0  0  0
   -4.2844  -12.8667    0.0000 C   0  0  0  0  0  0  0  0  0  0  0  0
   -4.9928  -13.2792    0.0000 C   0  0  0  0  0  0  0  0  0  0  0  0
  6  8  1  0
 13 16  1  0
 29 30  1  0
 30 31  1  0
 31 32  1  0
 32 28  1  0
 31 33  1  1
 13 17  1  0
 29 34  1  6
  8  9  1  0
 34 35  1  0
 15 18  1  0
 35 36  1  0
  4  5  1  0
 35 37  2  0
 18 19  1  0
 35 38  1  0
  9 10  1  0
 30 39  1  6
 33 40  1  0
 19 20  1  0
  2  3  1  0
 40 41  2  0
 41 43  1  0
 42 33  1  0
 42 43  2  0
 19 21  2  0
 10 11  1  0
 19 22  1  0
  5  6  1  0
 20 23  1  0
 10 12  2  0
 42 47  1  0
 43 44  1  0
 44 45  2  0
 45 46  1  0
 46 47  2  0
 23 24  1  0
 44 48  1  0
  1  2  1  0
  1 49  1  0
 23 25  2  0
 49 50  1  0
 11 13  1  0
 49 51  2  0
 23 26  1  0
 50 52  1  0
  5  7  2  0
 52 53  1  0
 24 27  1  0
 53 54  1  0
 11 14  1  0
 54 55  1  0
 28 27  1  1
 55 56  1  0
 28 29  1  0
 56 57  1  0
  3  4  1  0
 57 58  1  0
 13 15  1  0
 58 59  1  0
M  END

> <chembl_id>
CHEMBL1949897

> <chembl_pref_name>
Decanoyl-CoA

$$$$

     RDKit          2D

 67 70  0  0  0  0  0  0  0  0999 V2000
   19.4245  -10.1097    0.0000 C   0  0  0  0  0  0  0  0  0  0  0  0
   20.1384  -10.5231    0.0000 C   0  0  0  0  0  0  0  0  0  0  0  0
   19.4255   -9.2847    0.0000 O   0  0  0  0  0  0  0  0  0  0  0  0
   20.1373  -11.3481    0.0000 O   0  0  0  0  0  0  0  0  0  0  0  0
   20.8534  -10.1116    0.0000 C   0  0  0  0  0  0  0  0  0  0  0  0
   21.5674  -10.5250    0.0000 C   0  0  0  0  0  0  0  0  0  0  0  0
   21.4339   -9.5211    0.0000 C   0  0  0  0  0  0  0  0  0  0  0  0
   20.2630   -9.5211    0.0000 C   0  0  0  0  0  0  0  0  0  0  0  0
   22.2824  -10.1134    0.0000 O   0  0  0  0  0  0  0  0  0  0  0  0
   22.9964  -10.5268    0.0000 P   0  0  0  0  0  0  0  0  0  0  0  0
   23.7113  -10.1152    0.0000 O   0  0  0  0  0  0  0  0  0  0  0  0
   22.5756  -11.2378    0.0000 O   0  0  0  0  0  0  0  0  0  0  0  0
   23.5757  -11.1086    0.0000 O   0  0  0  0  0  0  0  0  0  0  0  0
   24.4253  -10.5286    0.0000 P   0  0  0  0  0  0  0  0  0  0  0  0
   24.2048  -11.3212    0.0000 O   0  0  0  0  0  0  0  0  0  0  0  0
   24.8299  -11.2378    0.0000 O   0  0  0  0  0  0  0  0  0  0  0  0
   25.1339  -10.1086    0.0000 O   0  0  0  0  0  0  0  0  0  0  0  0
   25.8532  -10.5129    0.0000 C   0  0  0  0  0  0  0  0  0  0  0  0
   26.5025  -10.0037    0.0000 C   0  0  0  0  0  0  0  0  0  0  0  0
   27.2919  -10.2285    0.0000 C   0  0  0  0  0  0  0  0  0  0  0  0
   27.7523   -9.5439    0.0000 C   0  0  0  0  0  0  0  0  0  0  0  0
   27.2434   -8.8944    0.0000 C   0  0  0  0  0  0  0  0  0  0  0  0
   26.4686   -9.1778    0.0000 O   0  0  0  0  0  0  0  0  0  0  0  0
   27.5753  -11.0033    0.0000 O   0  0  0  0  0  0  0  0  0  0  0  0
   28.5768   -9.5140    0.0000 O   0  0  0  0  0  0  0  0  0  0  0  0
   27.4839   -8.1062    0.0000 N   0  0  0  0  0  0  0  0  0  0  0  0
   27.4551   -6.7727    0.0000 N   0  0  0  0  0  0  0  0  0  0  0  0
   26.9860   -7.4525    0.0000 C   0  0  0  0  0  0  0  0  0  0  0  0
   28.2464   -7.0101    0.0000 C   0  0  0  0  0  0  0  0  0  0  0  0
   28.2606   -7.8360    0.0000 C   0  0  0  0  0  0  0  0  0  0  0  0
   28.9818   -8.2348    0.0000 N   0  0  0  0  0  0  0  0  0  0  0  0
   29.6892   -7.8088    0.0000 N   0  0  0  0  0  0  0  0  0  0  0  0
   29.6708   -6.9799    0.0000 C   0  0  0  0  0  0  0  0  0  0  0  0
   28.9493   -6.5849    0.0000 C   0  0  0  0  0  0  0  0  0  0  0  0
   28.9314   -5.7601    0.0000 N   0  0  0  0  0  0  0  0  0  0  0  0
   27.0461  -11.6362    0.0000 P   0  0  0  0  0  0  0  0  0  0  0  0
   27.4507  -12.3462    0.0000 O   0  0  0  0  0  0  0  0  0  0  0  0
   26.4549  -11.0461    0.0000 O   0  0  0  0  0  0  0  0  0  0  0  0
   26.4549  -12.2170    0.0000 O   0  0  0  0  0  0  0  0  0  0  0  0
   13.7920  -11.5503    0.0000 C   0  0  0  0  0  0  0  0  0  0  0  0
   12.9961  -11.3378    0.0000 C   0  0  0  0  0  0  0  0  0  0  0  0
   13.2101  -12.1333    0.0000 O   0  0  0  0  0  0  0  0  0  0  0  0
    5.1418   -9.3003    0.0000 C   0  0  0  0  0  0  0  0  0  0  0  0
    5.8544   -8.8878    0.0000 C   0  0  0  0  0  0  0  0  0  0  0  0
    6.5668   -9.2960    0.0000 C   0  0  0  0  0  0  0  0  0  0  0  0
    7.2794   -8.8836    0.0000 C   0  0  0  0  0  0  0  0  0  0  0  0
    7.9919   -9.2919    0.0000 C   0  0  0  0  0  0  0  0  0  0  0  0
    4.4268   -8.8886    0.0000 C   0  0  0  0  0  0  0  0  0  0  0  0
    7.9945  -10.1169    0.0000 C   0  0  0  0  0  0  0  0  0  0  0  0
    8.7103  -10.5271    0.0000 C   0  0  0  0  0  0  0  0  0  0  0  0
    8.7130  -11.3521    0.0000 C   0  0  0  0  0  0  0  0  0  0  0  0
    9.4288  -11.7624    0.0000 C   0  0  0  0  0  0  0  0  0  0  0  0
   10.1420  -11.3476    0.0000 C   0  0  0  0  0  0  0  0  0  0  0  0
   10.8578  -11.7578    0.0000 C   0  0  0  0  0  0  0  0  0  0  0  0
   11.5709  -11.3431    0.0000 C   0  0  0  0  0  0  0  0  0  0  0  0
   12.2867  -11.7533    0.0000 C   0  0  0  0  0  0  0  0  0  0  0  0
   12.9973  -10.5135    0.0000 C   0  0  0  0  0  0  0  0  0  0  0  0
   13.7122  -10.1019    0.0000 S   0  0  0  0  0  0  0  0  0  0  0  0
   12.2833  -10.1001    0.0000 O   0  0  0  0  0  0  0  0  0  0  0  0
   14.4262  -10.5153    0.0000 C   0  0  0  0  0  0  0  0  0  0  0  0
   15.1412  -10.1037    0.0000 C   0  0  0  0  0  0  0  0  0  0  0  0
   15.8552  -10.5171    0.0000 N   0  0  0  0  0  0  0  0  0  0  0  0
   16.5702  -10.1055    0.0000 C   0  0  0  0  0  0  0  0  0  0  0  0
   17.2841  -10.5189    0.0000 C   0  0  0  0  0  0  0  0  0  0  0  0
   16.5713   -9.2805    0.0000 O   0  0  0  0  0  0  0  0  0  0  0  0
   17.9991  -10.1073    0.0000 C   0  0  0  0  0  0  0  0  0  0  0  0
   18.7131  -10.5208    0.0000 N   0  0  0  0  0  0  0  0  0  0  0  0
  1  2  1  0
  1  3  2  0
  2  4  1  1
  2  5  1  0
  5  6  1  0
  5  7  1  0
  5  8  1  0
  6  9  1  0
  9 10  1  0
 10 11  1  0
 10 12  2  0
 10 13  1  0
 11 14  1  0
 14 15  2  0
 14 16  1  0
 14 17  1  0
 17 18  1  0
 19 18  1  1
 19 20  1  0
 20 21  1  0
 21 22  1  0
 22 23  1  0
 23 19  1  0
 20 24  1  6
 21 25  1  6
 26 30  1  0
 29 27  1  0
 27 28  2  0
 28 26  1  0
 22 26  1  1
 29 30  2  0
 30 31  1  0
 31 32  2  0
 32 33  1  0
 33 34  2  0
 34 29  1  0
 34 35  1  0
 24 36  1  0
 36 37  1  0
 36 38  2  0
 36 39  1  0
 41 40  1  0
 42 41  1  0
 40 42  1  0
 43 44  1  0
 44 45  1  0
 45 46  1  0
 46 47  1  0
 43 48  1  0
 47 49  1  0
 49 50  1  0
 50 51  1  0
 51 52  1  0
 52 53  1  0
 53 54  1  0
 54 55  1  0
 55 56  1  0
 41 56  1  0
 41 57  1  0
 57 58  1  0
 57 59  2  0
 58 60  1  0
 60 61  1  0
 61 62  1  0
 62 63  1  0
 63 64  1  0
 63 65  2  0
 64 66  1  0
 66 67  1  0
 67  1  1  0
M  END

> <chembl_id>
CHEMBL2216797

> <chembl_pref_name>
None

$$$$

     RDKit          2D

 22 24  0  0  0  0  0  0  0  0999 V2000
   36.5698   -7.3498    0.0000 C   0  0  0  0  0  0  0  0  0  0  0  0
   35.9069   -6.8677    0.0000 N   0  0  0  0  0  0  0  0  0  0  0  0
   35.2440   -7.3498    0.0000 C   0  0  0  0  0  0  0  0  0  0  0  0
   36.3155   -8.1307    0.0000 C   0  0  0  0  0  0  0  0  0  0  0  0
   35.4941   -8.1307    0.0000 C   0  0  0  0  0  0  0  0  0  0  0  0
   35.2416   -8.9120    0.0000 C   0  0  0  0  0  0  0  0  0  0  0  0
   35.9069   -9.3965    0.0000 C   0  0  0  0  0  0  0  0  0  0  0  0
   36.5679   -8.9120    0.0000 C   0  0  0  0  0  0  0  0  0  0  0  0
   34.4602   -9.1645    0.0000 O   0  0  0  0  0  0  0  0  0  0  0  0
   34.6687   -8.1265    0.0000 H   0  0  0  0  0  0  0  0  0  0  0  0
   37.1327   -8.1306    0.0000 S   0  0  0  0  0  0  0  0  0  0  0  0
   37.5454   -8.8425    0.0000 C   0  0  0  0  0  0  0  0  0  0  0  0
   38.3667   -8.8424    0.0000 C   0  0  0  0  0  0  0  0  0  0  0  0
   37.1327   -9.5543    0.0000 O   0  0  0  0  0  0  0  0  0  0  0  0
   37.3515   -7.0984    0.0000 O   0  0  0  0  0  0  0  0  0  0  0  0
   34.4626   -7.0977    0.0000 O   0  0  0  0  0  0  0  0  0  0  0  0
   38.7753   -8.1306    0.0000 C   0  0  0  0  0  0  0  0  0  0  0  0
   39.5936   -8.1333    0.0000 C   0  0  0  0  0  0  0  0  0  0  0  0
   40.0063   -7.4223    0.0000 C   0  0  0  0  0  0  0  0  0  0  0  0
   39.5935   -6.7095    0.0000 C   0  0  0  0  0  0  0  0  0  0  0  0
   38.7679   -6.7121    0.0000 C   0  0  0  0  0  0  0  0  0  0  0  0
   38.3631   -7.4237    0.0000 C   0  0  0  0  0  0  0  0  0  0  0  0
  4  1  1  0
  1  2  1  0
  2  3  1  0
  3  5  1  0
  4  5  1  0
  5  6  1  0
  6  7  1  0
  7  8  1  0
  8  4  1  0
  6  9  1  6
  5 10  1  6
  4 11  1  6
 11 12  1  0
 12 13  1  0
 12 14  2  0
  1 15  2  0
  3 16  2  0
 13 17  1  0
 17 18  2  0
 18 19  1  0
 19 20  2  0
 20 21  1  0
 21 22  2  0
 22 17  1  0
M  END

> <chembl_id>
CHEMBL4100972

> <chembl_pref_name>
None

$$$$

     RDKit          2D

 65 67  0  0  1  0  0  0  0  0999 V2000
   10.9875   -3.1542    0.0000 N   0  0  0  0  0  0  0  0  0  0  0  0
   10.0792   -4.5042    0.0000 C   0  0  0  0  0  0  0  0  0  0  0  0
    4.9417   -1.2250    0.0000 C   0  0  0  0  0  0  0  0  0  0  0  0
    5.7500   -1.3875    0.0000 C   0  0  0  0  0  0  0  0  0  0  0  0
   10.0792   -0.9792    0.0000 N   0  0  0  0  0  0  0  0  0  0  0  0
    9.3167   -4.8167    0.0000 N   0  0  0  0  0  0  0  0  0  0  0  0
    7.1417   -1.5625    0.0000 C   0  0  0  0  0  0  0  0  0  0  0  0
   10.9875   -2.3250    0.0000 C   0  0  0  0  0  0  0  0  0  0  0  0
    4.3917   -1.8417    0.0000 N   0  0  0  0  0  0  0  0  0  0  0  0
    7.7292   -0.9792    0.0000 N   0  0  0  0  0  0  0  0  0  0  0  0
    9.3167   -0.6625    0.0000 C   0  0  0  0  0  0  0  0  0  0  0  0
    6.8292   -2.3250    0.0000 C   0  0  0  0  0  0  0  0  0  0  0  0
    3.5792   -1.6792    0.0000 C   0  0  0  0  0  0  0  0  0  0  0  0
   10.6667   -3.9167    0.0000 C   0  0  0  0  0  0  0  0  0  0  0  0
    6.0167   -2.1667    0.0000 N   0  0  0  0  0  0  0  0  0  0  0  0
   10.6667   -1.5625    0.0000 C   0  0  0  0  0  0  0  0  0  0  0  0
    1.6792   -2.7625    0.0000 C   0  0  0  0  0  0  0  0  0  0  0  0
    2.2250   -2.1417    0.0000 N   0  0  0  0  0  0  0  0  0  0  0  0
    3.0375   -2.3042    0.0000 C   0  0  0  0  0  0  0  0  0  0  0  0
    7.7292   -4.5042    0.0000 C   0  0  0  0  0  0  0  0  0  0  0  0
    7.1417   -3.9167    0.0000 S   0  0  0  0  0  0  0  0  0  0  0  0
    8.4917   -4.8167    0.0000 C   0  0  0  0  0  0  0  0  0  0  0  0
    8.4917   -0.6625    0.0000 C   0  0  0  0  0  0  0  0  0  0  0  0
    6.8292   -3.1542    0.0000 C   0  0  0  0  0  0  0  0  0  0  0  0
    0.8667   -2.6000    0.0000 C   0  0  0  0  0  0  0  0  0  0  0  0
   10.5417   -5.1875    0.0000 O   0  0  0  0  0  0  0  0  0  0  0  0
    6.1250   -0.6250    0.0000 O   0  0  0  0  0  0  0  0  0  0  0  0
    6.4542   -1.1042    0.0000 O   0  0  0  0  0  0  0  0  0  0  0  0
   11.8000   -2.1667    0.0000 O   0  0  0  0  0  0  0  0  0  0  0  0
    9.4792    0.1500    0.0000 O   0  0  0  0  0  0  0  0  0  0  0  0
    3.3167   -0.9000    0.0000 O   0  0  0  0  0  0  0  0  0  0  0  0
   11.3542   -1.1042    0.0000 C   0  0  0  0  0  0  0  0  0  0  0  0
    1.9500   -3.5500    0.0000 O   0  0  0  0  0  0  0  0  0  0  0  0
    7.2667   -5.1875    0.0000 O   0  0  0  0  0  0  0  0  0  0  0  0
    0.6042   -1.8250    0.0000 C   0  0  0  0  0  0  0  0  0  0  0  0
    4.6750   -0.4375    0.0000 C   0  0  0  0  0  0  0  0  0  0  0  0
   11.3542   -4.3792    0.0000 C   0  0  0  0  0  0  0  0  0  0  0  0
   -0.2083   -1.6625    0.0000 C   0  0  0  0  0  0  0  0  0  0  0  0
    0.3250   -3.2250    0.0000 N   0  0  0  0  0  0  0  0  0  0  0  0
    8.3292   -5.6292    0.0000 C   0  0  0  0  0  0  0  0  0  0  0  0
   -1.8333   -1.3375    0.0000 C   0  0  0  0  0  0  0  0  0  0  0  0
   11.3042   -0.2792    0.0000 C   0  0  0  0  0  0  0  0  0  0  0  0
    8.7917   -6.9875    0.0000 S   0  0  0  0  0  0  0  0  0  0  0  0
    3.3042   -3.0875    0.0000 C   0  0  0  0  0  0  0  0  0  0  0  0
   -0.7583   -2.2792    0.0000 C   0  0  0  0  0  0  0  0  0  0  0  0
   -0.4708   -0.8750    0.0000 C   0  0  0  0  0  0  0  0  0  0  0  0
   -1.2833   -0.7125    0.0000 C   0  0  0  0  0  0  0  0  0  0  0  0
   -1.5625   -2.1167    0.0000 C   0  0  0  0  0  0  0  0  0  0  0  0
    5.2167    0.1833    0.0000 O   0  0  0  0  0  0  0  0  0  0  0  0
   -2.6375   -1.1750    0.0000 O   0  0  0  0  0  0  0  0  0  0  0  0
    2.7542   -3.7125    0.0000 O   0  0  0  0  0  0  0  0  0  0  0  0
    8.3292    0.1500    0.0000 C   0  0  0  0  0  0  0  0  0  0  0  0
    8.9542   -6.1750    0.0000 C   0  0  0  0  0  0  0  0  0  0  0  0
   12.1000   -4.0042    0.0000 C   0  0  0  0  0  0  0  0  0  0  0  0
    3.8625   -0.2750    0.0000 C   0  0  0  0  0  0  0  0  0  0  0  0
    9.4167   -7.5375    0.0000 C   0  0  0  0  0  0  0  0  0  0  0  0
   11.3042   -5.2042    0.0000 C   0  0  0  0  0  0  0  0  0  0  0  0
   11.9917    0.1833    0.0000 C   0  0  0  0  0  0  0  0  0  0  0  0
   10.5625    0.0875    0.0000 C   0  0  0  0  0  0  0  0  0  0  0  0
    7.5500    0.4125    0.0000 C   0  0  0  0  0  0  0  0  0  0  0  0
   12.7875   -4.4750    0.0000 C   0  0  0  0  0  0  0  0  0  0  0  0
   10.5042    0.9125    0.0000 C   0  0  0  0  0  0  0  0  0  0  0  0
   11.9292    1.0083    0.0000 C   0  0  0  0  0  0  0  0  0  0  0  0
   11.1917    1.3708    0.0000 C   0  0  0  0  0  0  0  0  0  0  0  0
   11.6249   -3.6306    0.0000 H   0  0  0  0  0  0  0  0  0  0  0  0
  2 14  1  0
  3  4  1  0
  4 15  1  0
  5 16  1  0
  6  2  1  0
  7 10  1  0
  8  1  1  0
  3  9  1  1
 10 23  1  0
 11  5  1  0
 12 24  1  0
 13  9  1  0
 14  1  1  0
 12 15  1  1
 16  8  1  0
 17 18  1  0
 19 18  1  6
 19 13  1  0
 20 22  1  0
 21 20  1  0
 22  6  1  0
 23 11  1  0
 24 21  1  0
 25 17  1  0
 26  2  2  0
 27  4  2  0
 28  7  2  0
 29  8  2  0
 30 11  2  0
 31 13  2  0
 16 32  1  6
 33 17  2  0
 34 20  2  0
 25 35  1  0
  3 36  1  0
 14 37  1  0
 38 35  1  0
 25 39  1  1
 22 40  1  6
 41 47  1  0
 42 32  1  0
 43 53  1  0
 19 44  1  0
 45 38  2  0
 46 38  1  0
 47 46  2  0
 48 45  1  0
 36 49  1  1
 50 41  1  0
 51 44  1  0
 23 52  1  6
 53 40  1  0
 54 37  1  0
 55 36  1  0
 56 43  1  0
 37 57  1  6
 58 42  1  0
 59 42  2  0
 60 52  1  0
 61 54  1  0
 62 59  1  0
 63 58  2  0
 64 62  2  0
 64 63  1  0
 12  7  1  0
 41 48  2  0
 14 65  1  1
M  END

> <chembl_id>
CHEMBL311727

> <chembl_pref_name>
None

$$$$
 
     RDKit          2D

 60 61  0  0  0  0  0  0  0  0999 V2000
   13.0762   -4.2257    0.0000 N   0  0  0  0  0  0  0  0  0  0  0  0
   13.7647   -4.6302    0.0000 C   0  0  0  0  0  0  0  0  0  0  0  0
   14.4614   -5.8271    0.0000 O   0  0  0  0  0  0  0  0  0  0  0  0
   13.7647   -5.4268    0.0000 C   0  0  0  0  0  0  0  0  0  0  0  0
   14.4614   -4.2257    0.0000 C   0  0  0  0  0  0  0  0  0  0  0  0
   15.1539   -4.6302    0.0000 C   0  0  0  0  0  0  0  0  0  0  0  0
   13.0762   -5.8271    0.0000 N   0  0  0  0  0  0  0  0  0  0  0  0
   13.0762   -6.6237    0.0000 C   0  0  0  0  0  0  0  0  0  0  0  0
   11.6910   -6.6237    0.0000 O   0  0  0  0  0  0  0  0  0  0  0  0
   12.3836   -7.0281    0.0000 C   0  0  0  0  0  0  0  0  0  0  0  0
   13.7647   -7.0281    0.0000 C   0  0  0  0  0  0  0  0  0  0  0  0
   13.7647   -7.8247    0.0000 C   0  0  0  0  0  0  0  0  0  0  0  0
   12.3836   -7.8247    0.0000 N   0  0  0  0  0  0  0  0  0  0  0  0
   11.6910   -8.2291    0.0000 C   0  0  0  0  0  0  0  0  0  0  0  0
   12.3836   -9.4260    0.0000 O   0  0  0  0  0  0  0  0  0  0  0  0
   11.6910   -9.0257    0.0000 C   0  0  0  0  0  0  0  0  0  0  0  0
   10.9943   -7.8247    0.0000 C   0  0  0  0  0  0  0  0  0  0  0  0
   10.9943   -7.0281    0.0000 S   0  0  0  0  0  0  0  0  0  0  0  0
   10.9943   -9.4260    0.0000 N   0  0  0  0  0  0  0  0  0  0  0  0
   10.9943  -10.2226    0.0000 C   0  0  0  0  0  0  0  0  0  0  0  0
   10.3059  -11.4236    0.0000 O   0  0  0  0  0  0  0  0  0  0  0  0
   10.3059  -10.6271    0.0000 C   0  0  0  0  0  0  0  0  0  0  0  0
   11.6910  -10.6271    0.0000 C   0  0  0  0  0  0  0  0  0  0  0  0
    9.6133  -10.2226    0.0000 N   0  0  0  0  0  0  0  0  0  0  0  0
    8.9207  -10.6271    0.0000 C   0  0  0  0  0  0  0  0  0  0  0  0
    7.5356  -10.6271    0.0000 O   0  0  0  0  0  0  0  0  0  0  0  0
    8.2281  -10.2226    0.0000 C   0  0  0  0  0  0  0  0  0  0  0  0
    8.9207  -11.4236    0.0000 C   0  0  0  0  0  0  0  0  0  0  0  0
    7.5356  -11.4236    0.0000 C   0  0  0  0  0  0  0  0  0  0  0  0
    8.2281  -11.8281    0.0000 C   0  0  0  0  0  0  0  0  0  0  0  0
    8.2281  -12.6246    0.0000 C   0  0  0  0  0  0  0  0  0  0  0  0
    7.5356  -13.0250    0.0000 C   0  0  0  0  0  0  0  0  0  0  0  0
    6.8430  -12.6246    0.0000 C   0  0  0  0  0  0  0  0  0  0  0  0
    6.8430  -11.8281    0.0000 C   0  0  0  0  0  0  0  0  0  0  0  0
    8.2281   -9.4260    0.0000 N   0  0  0  0  0  0  0  0  0  0  0  0
    7.5356   -9.0257    0.0000 C   0  0  0  0  0  0  0  0  0  0  0  0
    6.8430   -7.8247    0.0000 O   0  0  0  0  0  0  0  0  0  0  0  0
    7.5356   -8.2291    0.0000 C   0  0  0  0  0  0  0  0  0  0  0  0
    6.8430   -9.4260    0.0000 C   0  0  0  0  0  0  0  0  0  0  0  0
    8.2281   -7.8247    0.0000 N   0  0  0  0  0  0  0  0  0  0  0  0
    8.2281   -7.0281    0.0000 C   0  0  0  0  0  0  0  0  0  0  0  0
    8.9207   -5.8271    0.0000 O   0  0  0  0  0  0  0  0  0  0  0  0
    8.9207   -6.6237    0.0000 C   0  0  0  0  0  0  0  0  0  0  0  0
    7.5356   -6.6237    0.0000 C   0  0  0  0  0  0  0  0  0  0  0  0
   14.4624   -3.4085    0.0000 C   0  0  0  0  0  0  0  0  0  0  0  0
   15.1707   -3.0009    0.0000 C   0  0  0  0  0  0  0  0  0  0  0  0
    7.5356   -5.8065    0.0000 C   0  0  0  0  0  0  0  0  0  0  0  0
    8.2433   -5.3979    0.0000 C   0  0  0  0  0  0  0  0  0  0  0  0
    6.8278   -5.3979    0.0000 C   0  0  0  0  0  0  0  0  0  0  0  0
    6.1352   -9.0176    0.0000 C   0  0  0  0  0  0  0  0  0  0  0  0
    6.1349   -8.2004    0.0000 C   0  0  0  0  0  0  0  0  0  0  0  0
    5.4276   -9.4264    0.0000 C   0  0  0  0  0  0  0  0  0  0  0  0
   13.0569   -8.2333    0.0000 O   0  0  0  0  0  0  0  0  0  0  0  0
   14.4724   -8.2333    0.0000 N   0  0  0  0  0  0  0  0  0  0  0  0
   12.3654   -4.6290    0.0000 C   0  0  0  0  0  0  0  0  0  0  0  0
   11.6608   -4.2150    0.0000 C   0  0  0  0  0  0  0  0  0  0  0  0
   12.3592   -5.4461    0.0000 O   0  0  0  0  0  0  0  0  0  0  0  0
   11.6670   -3.3978    0.0000 C   0  0  0  0  0  0  0  0  0  0  0  0
   10.9624   -2.9839    0.0000 C   0  0  0  0  0  0  0  0  0  0  0  0
   10.2584   -2.5701    0.0000 C   0  0  0  0  0  0  0  0  0  0  0  0
  4  7  1  0
 10 13  1  0
 16 19  1  0
 22 24  1  0
 27 35  1  0
 38 40  1  0
  2  1  1  1
  2  4  1  0
  4  3  2  0
  2  5  1  0
  5  6  1  6
  8  7  1  1
  8 10  1  0
 10  9  2  0
  8 11  1  0
 11 12  1  0
 13 14  1  0
 14 16  1  0
 16 15  2  0
 14 17  1  6
 17 18  1  0
 20 19  1  1
 20 22  1  0
 22 21  2  0
 20 23  1  0
 25 24  1  1
 25 27  1  0
 27 26  2  0
 25 28  1  0
 28 30  1  0
 29 30  2  0
 30 31  1  0
 31 32  2  0
 32 33  1  0
 33 34  2  0
 34 29  1  0
 36 35  1  1
 36 38  1  0
 38 37  2  0
 36 39  1  0
 41 40  1  1
 41 43  1  0
 43 42  2  0
 41 44  1  0
 43 18  1  0
  5 45  1  0
 45 46  1  0
 44 47  1  0
 47 48  1  0
 47 49  1  0
 39 50  1  0
 50 51  1  0
 50 52  1  0
 12 53  2  0
 12 54  1  0
  1 55  1  0
 55 56  1  0
 55 57  2  0
 56 58  1  0
 58 59  1  0
 59 60  3  0
M  END

> <chembl_id>
CHEMBL4448232

> <chembl_pref_name>
None

$$$$
 
     RDKit          2D

 57 58  0  0  0  0  0  0  0  0999 V2000
   10.0559   -2.2203    0.0000 N   0  0  0  0  0  0  0  0  0  0  0  0
   10.7402   -2.6206    0.0000 C   0  0  0  0  0  0  0  0  0  0  0  0
   11.4287   -3.8051    0.0000 O   0  0  0  0  0  0  0  0  0  0  0  0
   10.7402   -3.4089    0.0000 C   0  0  0  0  0  0  0  0  0  0  0  0
   11.4287   -2.2203    0.0000 C   0  0  0  0  0  0  0  0  0  0  0  0
   10.0559   -3.8051    0.0000 N   0  0  0  0  0  0  0  0  0  0  0  0
   10.0559   -4.5934    0.0000 C   0  0  0  0  0  0  0  0  0  0  0  0
    8.6872   -4.5934    0.0000 O   0  0  0  0  0  0  0  0  0  0  0  0
    9.3715   -4.9938    0.0000 C   0  0  0  0  0  0  0  0  0  0  0  0
   10.7402   -4.9938    0.0000 C   0  0  0  0  0  0  0  0  0  0  0  0
    9.3715   -5.7821    0.0000 N   0  0  0  0  0  0  0  0  0  0  0  0
    8.6872   -6.1824    0.0000 C   0  0  0  0  0  0  0  0  0  0  0  0
    9.3715   -7.3711    0.0000 O   0  0  0  0  0  0  0  0  0  0  0  0
    8.6872   -6.9748    0.0000 C   0  0  0  0  0  0  0  0  0  0  0  0
    7.9946   -5.7821    0.0000 C   0  0  0  0  0  0  0  0  0  0  0  0
    7.9946   -4.9938    0.0000 S   0  0  0  0  0  0  0  0  0  0  0  0
    7.9946   -7.3711    0.0000 N   0  0  0  0  0  0  0  0  0  0  0  0
    7.9946   -8.1594    0.0000 C   0  0  0  0  0  0  0  0  0  0  0  0
    7.3144   -9.3480    0.0000 O   0  0  0  0  0  0  0  0  0  0  0  0
    7.3144   -8.5597    0.0000 C   0  0  0  0  0  0  0  0  0  0  0  0
    8.6872   -8.5597    0.0000 C   0  0  0  0  0  0  0  0  0  0  0  0
    8.6872   -9.3480    0.0000 C   0  0  0  0  0  0  0  0  0  0  0  0
    7.9946   -9.7483    0.0000 O   0  0  0  0  0  0  0  0  0  0  0  0
    9.3715   -9.7483    0.0000 O   0  0  0  0  0  0  0  0  0  0  0  0
    6.6301   -8.1594    0.0000 N   0  0  0  0  0  0  0  0  0  0  0  0
    5.9417   -8.5597    0.0000 C   0  0  0  0  0  0  0  0  0  0  0  0
    4.5730   -8.5597    0.0000 O   0  0  0  0  0  0  0  0  0  0  0  0
    5.2573   -8.1594    0.0000 C   0  0  0  0  0  0  0  0  0  0  0  0
    5.9417   -9.3480    0.0000 C   0  0  0  0  0  0  0  0  0  0  0  0
    4.5730   -9.3480    0.0000 C   0  0  0  0  0  0  0  0  0  0  0  0
    5.2573   -9.7483    0.0000 C   0  0  0  0  0  0  0  0  0  0  0  0
    5.2573  -10.5366    0.0000 C   0  0  0  0  0  0  0  0  0  0  0  0
    4.5730  -10.9329    0.0000 C   0  0  0  0  0  0  0  0  0  0  0  0
    3.8846  -10.5366    0.0000 C   0  0  0  0  0  0  0  0  0  0  0  0
    3.8846   -9.7483    0.0000 C   0  0  0  0  0  0  0  0  0  0  0  0
    5.2573   -7.3711    0.0000 N   0  0  0  0  0  0  0  0  0  0  0  0
    4.5730   -6.9748    0.0000 C   0  0  0  0  0  0  0  0  0  0  0  0
    3.8846   -5.7821    0.0000 O   0  0  0  0  0  0  0  0  0  0  0  0
    4.5730   -6.1824    0.0000 C   0  0  0  0  0  0  0  0  0  0  0  0
    3.8846   -7.3711    0.0000 C   0  0  0  0  0  0  0  0  0  0  0  0
    5.2573   -5.7821    0.0000 N   0  0  0  0  0  0  0  0  0  0  0  0
    5.2573   -4.9938    0.0000 C   0  0  0  0  0  0  0  0  0  0  0  0
    5.9417   -3.8051    0.0000 O   0  0  0  0  0  0  0  0  0  0  0  0
    5.9417   -4.5934    0.0000 C   0  0  0  0  0  0  0  0  0  0  0  0
    4.5730   -4.5934    0.0000 C   0  0  0  0  0  0  0  0  0  0  0  0
   12.1291   -2.6231    0.0000 C   0  0  0  0  0  0  0  0  0  0  0  0
   11.4267   -1.4113    0.0000 C   0  0  0  0  0  0  0  0  0  0  0  0
   12.1252   -1.0052    0.0000 C   0  0  0  0  0  0  0  0  0  0  0  0
   10.7340   -5.8027    0.0000 C   0  0  0  0  0  0  0  0  0  0  0  0
   11.4303   -6.2125    0.0000 N   0  0  0  0  0  0  0  0  0  0  0  0
   10.0274   -6.2018    0.0000 O   0  0  0  0  0  0  0  0  0  0  0  0
    3.1849   -6.9670    0.0000 C   0  0  0  0  0  0  0  0  0  0  0  0
    2.4857   -7.3718    0.0000 C   0  0  0  0  0  0  0  0  0  0  0  0
    3.1845   -6.1580    0.0000 C   0  0  0  0  0  0  0  0  0  0  0  0
    4.5730   -3.7845    0.0000 C   0  0  0  0  0  0  0  0  0  0  0  0
    5.2725   -3.3800    0.0000 C   0  0  0  0  0  0  0  0  0  0  0  0
    3.8694   -3.3800    0.0000 C   0  0  0  0  0  0  0  0  0  0  0  0
  4  6  1  0
  9 11  1  0
 14 17  1  0
 20 25  1  0
 28 36  1  0
 39 41  1  0
  2  1  1  1
  2  4  1  0
  4  3  2  0
  2  5  1  0
  7  6  1  1
  7  9  1  0
  9  8  2  0
  7 10  1  0
 11 12  1  0
 12 14  1  0
 14 13  2  0
 12 15  1  6
 15 16  1  0
 18 17  1  1
 18 20  1  0
 20 19  2  0
 18 21  1  0
 21 22  1  0
 22 23  2  0
 22 24  1  0
 26 25  1  1
 26 28  1  0
 28 27  2  0
 26 29  1  0
 29 31  1  0
 30 31  2  0
 31 32  1  0
 32 33  2  0
 33 34  1  0
 34 35  2  0
 35 30  1  0
 37 36  1  1
 37 39  1  0
 39 38  2  0
 37 40  1  0
 42 41  1  1
 42 44  1  0
 44 43  2  0
 42 45  1  0
 44 16  1  0
  5 46  1  6
  5 47  1  0
 47 48  1  0
 10 49  1  0
 49 50  1  0
 49 51  2  0
 40 52  1  0
 52 53  1  0
 52 54  1  0
 45 55  1  0
 55 56  1  0
 55 57  1  0
M  END

> <chembl_id>
CHEMBL4566585

> <chembl_pref_name>
None

$$$$

     RDKit          2D

 26 28  0  0  0  0  0  0  0  0999 V2000
    6.1382   -5.3965    0.0000 N   0  0  0  0  0  0  0  0  0  0  0  0
    5.3215   -5.4089    0.0000 C   0  0  0  0  0  0  0  0  0  0  0  0
    6.1466   -4.5839    0.0000 C   0  0  0  0  0  0  0  0  0  0  0  0
    5.3215   -4.5839    0.0000 C   0  0  0  0  0  0  0  0  0  0  0  0
    6.8466   -5.8214    0.0000 C   0  0  0  0  0  0  0  0  0  0  0  0
    6.8591   -4.1713    0.0000 S   0  0  0  0  0  0  0  0  0  0  0  0
    7.5633   -5.4089    0.0000 C   0  0  0  0  0  0  0  0  0  0  0  0
    4.6006   -4.1671    0.0000 N   0  0  0  0  0  0  0  0  0  0  0  0
    6.8383   -6.6424    0.0000 C   0  0  0  0  0  0  0  0  0  0  0  0
    3.8879   -4.5797    0.0000 C   0  0  0  0  0  0  0  0  0  0  0  0
    3.1753   -4.1588    0.0000 C   0  0  0  0  0  0  0  0  0  0  0  0
    7.5717   -4.5922    0.0000 C   0  0  0  0  0  0  0  0  0  0  0  0
    4.7338   -5.9924    0.0000 O   0  0  0  0  0  0  0  0  0  0  0  0
    8.2717   -5.8340    0.0000 C   0  0  0  0  0  0  0  0  0  0  0  0
    7.5508   -7.0591    0.0000 O   0  0  0  0  0  0  0  0  0  0  0  0
    3.8713   -5.3965    0.0000 O   0  0  0  0  0  0  0  0  0  0  0  0
    6.1215   -7.0466    0.0000 O   0  0  0  0  0  0  0  0  0  0  0  0
    6.1382   -3.7671    0.0000 H   0  0  0  0  0  0  0  0  0  0  0  0
    2.4567   -4.5642    0.0000 O   0  0  0  0  0  0  0  0  0  0  0  0
    1.7463   -4.1446    0.0000 C   0  0  0  0  0  0  0  0  0  0  0  0
    1.7575   -3.3210    0.0000 C   0  0  0  0  0  0  0  0  0  0  0  0
    1.0479   -2.9015    0.0000 C   0  0  0  0  0  0  0  0  0  0  0  0
    0.3283   -3.3070    0.0000 C   0  0  0  0  0  0  0  0  0  0  0  0
    0.3228   -4.1363    0.0000 C   0  0  0  0  0  0  0  0  0  0  0  0
    1.0330   -4.5521    0.0000 C   0  0  0  0  0  0  0  0  0  0  0  0
    8.2903   -4.1869    0.0000 O   0  0  0  0  0  0  0  0  0  0  0  0
  2  1  1  0
  3  1  1  0
  4  3  1  0
  5  1  1  0
  6  3  1  0
  7  5  2  0
  4  8  1  1
  9  5  1  0
 10  8  1  0
 11 10  1  0
 12  7  1  0
 13  2  2  0
 14  7  1  0
 15  9  2  0
 16 10  2  0
 17  9  1  0
  3 18  1  6
  4  2  1  0
 12  6  1  0
 11 19  1  0
 19 20  1  0
 20 21  2  0
 21 22  1  0
 22 23  2  0
 23 24  1  0
 24 25  2  0
 25 20  1  0
 12 26  2  0
M  END

> <chembl_id>
CHEMBL3230052

> <chembl_pref_name>
None

$$$$

     RDKit          2D

 34 35  0  0  1  0  0  0  0  0999 V2000
    8.1755   -7.5117    0.0000 C   0  0  0  0  0  0  0  0  0  0  0  0
    7.7727   -8.2317    0.0000 C   0  0  0  0  0  0  0  0  0  0  0  0
    9.0005   -7.5006    0.0000 N   0  0  0  0  0  0  0  0  0  0  0  0
    9.4225   -8.2095    0.0000 C   0  0  0  0  0  0  0  0  0  0  0  0
   10.2475   -8.1984    0.0000 C   0  0  0  0  0  0  0  0  0  0  0  0
    9.0197   -8.9294    0.0000 O   0  0  0  0  0  0  0  0  0  0  0  0
    6.9478   -8.2428    0.0000 O   0  0  0  0  0  0  0  0  0  0  0  0
    8.1948   -8.9405    0.0000 O   0  0  0  0  0  0  0  0  0  0  0  0
    7.7919   -9.6605    0.0000 C   0  0  0  0  0  0  0  0  0  0  0  0
    7.7490   -6.8988    0.0000 C   0  0  0  0  0  0  0  0  0  0  0  0
    4.6875   -6.7625    0.0000 C   0  0  0  0  0  0  0  0  0  0  0  0
    5.5125   -6.7625    0.0000 C   0  0  0  0  0  0  0  0  0  0  0  0
    5.7693   -5.9784    0.0000 C   0  0  0  0  0  0  0  0  0  0  0  0
    5.1000   -5.4917    0.0000 N   0  0  0  0  0  0  0  0  0  0  0  0
    4.4349   -5.9784    0.0000 C   0  0  0  0  0  0  0  0  0  0  0  0
    5.7625   -5.1500    0.0000 C   0  0  0  0  0  0  0  0  0  0  0  0
    5.0447   -4.7433    0.0000 C   0  0  0  0  0  0  0  0  0  0  0  0
    5.0432   -3.9192    0.0000 C   0  0  0  0  0  0  0  0  0  0  0  0
    4.3295   -3.5126    0.0000 C   0  0  0  0  0  0  0  0  0  0  0  0
    3.6160   -3.9275    0.0000 C   0  0  0  0  0  0  0  0  0  0  0  0
    3.6208   -4.7534    0.0000 C   0  0  0  0  0  0  0  0  0  0  0  0
    4.3391   -5.1645    0.0000 C   0  0  0  0  0  0  0  0  0  0  0  0
    6.5911   -6.0615    0.0000 C   0  0  0  0  0  0  0  0  0  0  0  0
    6.9283   -6.8144    0.0000 S   0  0  0  0  0  0  0  0  0  0  0  0
    7.0745   -5.3929    0.0000 O   0  0  0  0  0  0  0  0  0  0  0  0
    6.4736   -4.7317    0.0000 O   0  0  0  0  0  0  0  0  0  0  0  0
    5.7583   -4.3250    0.0000 H   0  0  0  0  0  0  0  0  0  0  0  0
    4.3250   -4.3292    0.0000 H   0  0  0  0  0  0  0  0  0  0  0  0
    5.9966   -7.4305    0.0000 O   0  0  0  0  0  0  0  0  0  0  0  0
    4.9208   -7.3458    0.0000 C   0  0  0  0  0  0  0  0  0  0  0  0
    4.2017   -7.4293    0.0000 C   0  0  0  0  0  0  0  0  0  0  0  0
    3.3813   -7.3420    0.0000 C   0  0  0  0  0  0  0  0  0  0  0  0
    2.8955   -8.0089    0.0000 Cl  0  0  0  0  0  0  0  0  0  0  0  0
    3.6502   -5.7238    0.0000 O   0  0  0  0  0  0  0  0  0  0  0  0
 17 18  1  0
  8  9  1  0
  4  5  1  0
  1 10  1  0
 11 12  1  0
  1  3  1  0
 17 22  1  0
 18 19  1  0
 19 20  1  0
 20 21  1  0
 21 22  2  0
  4  6  2  0
 13 23  1  1
  1  2  1  1
 23 24  1  0
  2  7  2  0
 23 25  2  0
  3  4  1  0
 16 26  1  0
 12 13  1  0
 16 27  1  1
 13 14  1  0
 17 28  1  1
 14 15  1  0
 12 29  1  1
 15 11  1  0
 12 30  1  0
  2  8  1  0
 11 31  1  1
 13 16  1  0
 31 32  1  0
 32 33  1  0
 16 17  1  0
 15 34  2  0
 24 10  1  0
M  END

> <chembl_id>
CHEMBL220921

> <chembl_pref_name>
None

$$$$

     RDKit          2D

 44 46  0  0  0  0  0  0  0  0999 V2000
    3.6077  -19.8170    0.0000 C   0  0  0  0  0  0  0  0  0  0  0  0
    3.6077  -14.0422    0.0000 O   0  0  0  0  0  0  0  0  0  0  0  0
    7.8952  -16.5171    0.0000 N   0  0  0  0  0  0  0  0  0  0  0  0
    2.8939  -21.0523    0.0000 C   0  0  0  0  0  0  0  0  0  0  0  0
    7.1814  -15.2775    0.0000 O   0  0  0  0  0  0  0  0  0  0  0  0
    6.4674  -19.8170    0.0000 C   0  0  0  0  0  0  0  0  0  0  0  0
    5.0355  -17.3421    0.0000 O   0  0  0  0  0  0  0  0  0  0  0  0
    5.7536  -18.5774    0.0000 C   0  0  0  0  0  0  0  0  0  0  0  0
    3.6077  -18.9920    0.0000 C   0  0  0  0  0  0  0  0  0  0  0  0
    7.1814  -18.5774    0.0000 N   0  0  0  0  0  0  0  0  0  0  0  0
    3.6077  -14.8671    0.0000 C   0  0  0  0  0  0  0  0  0  0  0  0
    5.0355  -16.5171    0.0000 C   0  0  0  0  0  0  0  0  0  0  0  0
    7.1814  -20.2274    0.0000 C   0  0  0  0  0  0  0  0  0  0  0  0
    4.3217  -21.0523    0.0000 C   0  0  0  0  0  0  0  0  0  0  0  0
    5.7536  -15.2775    0.0000 C   0  0  0  0  0  0  0  0  0  0  0  0
    7.8952  -19.8170    0.0000 C   0  0  0  0  0  0  0  0  0  0  0  0
    7.1814  -21.0523    0.0000 C   0  0  0  0  0  0  0  0  0  0  0  0
    3.6077  -17.3421    0.0000 S   0  0  0  0  0  0  0  0  0  0  0  0
    5.5228  -17.1837    0.0000 O   0  0  0  0  0  0  0  0  0  0  0  0
    5.0355  -18.9920    0.0000 N   0  0  0  0  0  0  0  0  0  0  0  0
    5.7536  -16.1025    0.0000 N   0  0  0  0  0  0  0  0  0  0  0  0
    2.8939  -15.2775    0.0000 C   0  0  0  0  0  0  0  0  0  0  0  0
    7.8952  -17.3421    0.0000 C   0  0  0  0  0  0  0  0  0  0  0  0
    8.6092  -20.2274    0.0000 C   0  0  0  0  0  0  0  0  0  0  0  0
    9.3230  -21.4669    0.0000 O   0  0  0  0  0  0  0  0  0  0  0  0
    4.3217  -15.2775    0.0000 N   0  0  0  0  0  0  0  0  0  0  0  0
    6.4674  -16.5171    0.0000 C   0  0  0  0  0  0  0  0  0  0  0  0
    6.4674  -17.3421    0.0000 O   0  0  0  0  0  0  0  0  0  0  0  0
    7.1814  -17.7524    0.0000 C   0  0  0  0  0  0  0  0  0  0  0  0
    4.3217  -16.1025    0.0000 C   0  0  0  0  0  0  0  0  0  0  0  0
    4.3217  -18.5774    0.0000 C   0  0  0  0  0  0  0  0  0  0  0  0
    5.7536  -17.7524    0.0000 O   0  0  0  0  0  0  0  0  0  0  0  0
    7.8952  -21.4669    0.0000 C   0  0  0  0  0  0  0  0  0  0  0  0
    6.4674  -15.6921    0.0000 C   0  0  0  0  0  0  0  0  0  0  0  0
    4.3217  -17.7524    0.0000 C   0  0  0  0  0  0  0  0  0  0  0  0
    4.3217  -20.2274    0.0000 C   0  0  0  0  0  0  0  0  0  0  0  0
    3.6077  -16.5171    0.0000 C   0  0  0  0  0  0  0  0  0  0  0  0
    7.1814  -16.1025    0.0000 C   0  0  0  0  0  0  0  0  0  0  0  0
    8.6092  -21.0523    0.0000 C   0  0  0  0  0  0  0  0  0  0  0  0
    6.4674  -18.9920    0.0000 C   0  0  0  0  0  0  0  0  0  0  0  0
    2.8939  -20.2274    0.0000 C   0  0  0  0  0  0  0  0  0  0  0  0
    3.6077  -21.4669    0.0000 C   0  0  0  0  0  0  0  0  0  0  0  0
    5.7556  -14.4562    0.0000 N   0  0  0  0  0  0  0  0  0  0  0  0
    5.0413  -15.6864    0.0000 O   0  0  0  0  0  0  0  0  0  0  0  0
 39 33  1  0
 14 42  2  0
 30 26  1  6
  4 41  2  0
 36 14  1  0
 24 39  2  0
 33 17  2  0
 39 25  1  0
 29 28  2  0
 16 24  1  0
 13 17  1  0
  8 40  1  0
 12 19  2  0
 35 18  1  0
  7 35  2  0
 31  9  1  1
 21 27  1  0
 11 22  1  0
 12 21  1  0
  6 13  1  0
  9  1  1  0
 20  8  1  0
 40 10  1  0
 37 30  1  0
 42  4  1  0
 27 38  1  0
 10 29  1  0
 35 31  1  0
 27 34  1  6
 38  5  2  0
 31 20  1  0
 40  6  1  1
 23  3  1  0
  1 36  2  0
 26 11  1  0
 13 16  2  0
  8 32  2  0
 30 12  1  0
 29 23  1  0
 34 15  1  0
  3 38  1  0
 11  2  2  0
  1 41  1  0
 18 37  1  0
 15 43  1  0
 15 44  2  0
M  END

> <chembl_id>
CHEMBL3949806

> <chembl_pref_name>
None

$$$$

     RDKit          2D

 58 60  0  0  1  0  0  0  0  0999 V2000
   -4.5681   -1.7833    0.0000 C   0  0  0  0  0  0  0  0  0  0  0  0
   -4.5693   -2.6107    0.0000 N   0  0  0  0  0  0  0  0  0  0  0  0
   -3.8544   -3.0235    0.0000 C   0  0  0  0  0  0  0  0  0  0  0  0
   -3.8562   -1.3705    0.0000 N   0  0  0  0  0  0  0  0  0  0  0  0
   -3.1409   -1.7797    0.0000 C   0  0  0  0  0  0  0  0  0  0  0  0
   -3.1406   -2.6107    0.0000 C   0  0  0  0  0  0  0  0  0  0  0  0
   -2.3501   -2.8673    0.0000 N   0  0  0  0  0  0  0  0  0  0  0  0
   -1.8618   -2.1948    0.0000 C   0  0  0  0  0  0  0  0  0  0  0  0
   -2.3506   -1.5227    0.0000 N   0  0  0  0  0  0  0  0  0  0  0  0
   -2.0959   -0.7380    0.0000 C   0  0  0  0  0  0  0  0  0  0  0  0
   -1.3144   -0.4881    0.0000 O   0  0  0  0  0  0  0  0  0  0  0  0
   -1.3147    0.3369    0.0000 C   0  0  0  0  0  0  0  0  0  0  0  0
   -2.0995    0.5916    0.0000 C   0  0  0  0  0  0  0  0  0  0  0  0
   -2.5841   -0.0760    0.0000 C   0  0  0  0  0  0  0  0  0  0  0  0
   -0.6474    0.8221    0.0000 C   0  0  0  0  0  0  0  0  0  0  0  0
    0.1064    0.4868    0.0000 O   0  0  0  0  0  0  0  0  0  0  0  0
   -2.3547    1.3762    0.0000 O   0  0  0  0  0  0  0  0  0  0  0  0
   -3.4090   -0.0791    0.0000 O   0  0  0  0  0  0  0  0  0  0  0  0
   -1.8029    1.9895    0.0000 P   0  0  0  0  0  0  0  0  0  0  0  0
   -1.2208    2.5792    0.0000 O   0  0  0  0  0  0  0  0  0  0  0  0
   -2.4033    2.5553    0.0000 O   0  0  0  0  0  0  0  0  0  0  0  0
   -1.2052    1.4209    0.0000 O   0  0  0  0  0  0  0  0  0  0  0  0
    0.7736    0.9719    0.0000 P   0  0  0  0  0  0  0  0  0  0  0  0
    1.4833    1.3917    0.0000 O   0  0  0  0  0  0  0  0  0  0  0  0
    0.3206    1.6614    0.0000 O   0  0  0  0  0  0  0  0  0  0  0  0
    1.2271    0.2827    0.0000 O   0  0  0  0  0  0  0  0  0  0  0  0
    2.2021    0.9867    0.0000 P   0  0  0  0  0  0  0  0  0  0  0  0
    2.9125    0.5750    0.0000 O   0  0  0  0  0  0  0  0  0  0  0  0
    2.6114    1.7030    0.0000 O   0  0  0  0  0  0  0  0  0  0  0  0
    1.7962    0.2684    0.0000 O   0  0  0  0  0  0  0  0  0  0  0  0
    3.6276    0.9863    0.0000 C   0  0  0  0  0  0  0  0  0  0  0  0
    4.3414    0.5726    0.0000 C   0  0  0  0  0  0  0  0  0  0  0  0
    5.0500    0.1625    0.0000 C   0  0  0  0  0  0  0  0  0  0  0  0
    3.9280   -0.1413    0.0000 C   0  0  0  0  0  0  0  0  0  0  0  0
    4.7604    1.2834    0.0000 C   0  0  0  0  0  0  0  0  0  0  0  0
    5.0491   -0.6625    0.0000 O   0  0  0  0  0  0  0  0  0  0  0  0
    5.7649    0.5742    0.0000 C   0  0  0  0  0  0  0  0  0  0  0  0
    6.4789    0.1609    0.0000 N   0  0  0  0  0  0  0  0  0  0  0  0
    5.7659    1.3992    0.0000 O   0  0  0  0  0  0  0  0  0  0  0  0
    7.1939    0.5726    0.0000 C   0  0  0  0  0  0  0  0  0  0  0  0
    7.9079    0.1593    0.0000 C   0  0  0  0  0  0  0  0  0  0  0  0
    8.6228    0.5710    0.0000 C   0  0  0  0  0  0  0  0  0  0  0  0
    9.3368    0.1577    0.0000 N   0  0  0  0  0  0  0  0  0  0  0  0
    8.6237    1.3960    0.0000 O   0  0  0  0  0  0  0  0  0  0  0  0
   10.0518    0.5694    0.0000 C   0  0  0  0  0  0  0  0  0  0  0  0
   10.7658    0.1561    0.0000 C   0  0  0  0  0  0  0  0  0  0  0  0
   11.4807    0.5678    0.0000 S   0  0  0  0  0  0  0  0  0  0  0  0
   -3.8542   -3.8485    0.0000 N   0  0  0  0  0  0  0  0  0  0  0  0
   12.1947    0.1545    0.0000 C   0  0  0  0  0  0  0  0  0  0  0  0
   12.9096    0.5662    0.0000 C   0  0  0  0  0  0  0  0  0  0  0  0
   12.1938   -0.6705    0.0000 O   0  0  0  0  0  0  0  0  0  0  0  0
   13.6236    0.1529    0.0000 C   0  0  0  0  0  0  0  0  0  0  0  0
   14.3386    0.5646    0.0000 C   0  0  0  0  0  0  0  0  0  0  0  0
   13.6227   -0.6721    0.0000 O   0  0  0  0  0  0  0  0  0  0  0  0
   15.0526    0.1513    0.0000 C   0  0  0  0  0  0  0  0  0  0  0  0
   15.7675    0.5630    0.0000 C   0  0  0  0  0  0  0  0  0  0  0  0
   16.4815    0.1497    0.0000 C   0  0  0  0  0  0  0  0  0  0  0  0
   17.1965    0.5614    0.0000 C   0  0  0  0  0  0  0  0  0  0  0  0
 27 28  1  0
 12 13  1  0
 27 29  1  0
 13 14  1  0
 27 30  2  0
 14 10  1  0
 28 31  1  0
  1  2  2  0
 31 32  1  0
 12 15  1  1
 32 33  1  0
  5  4  2  0
 32 34  1  0
 15 16  1  0
 32 35  1  0
  6  7  1  0
 33 36  1  6
 13 17  1  6
 33 37  1  0
  7  8  2  0
 37 38  1  0
 14 18  1  6
 37 39  2  0
  8  9  1  0
 38 40  1  0
 17 19  1  0
 40 41  1  0
  9  5  1  0
 41 42  1  0
 19 20  1  0
 42 43  1  0
  4  1  1  0
 42 44  2  0
 19 21  2  0
 43 45  1  0
 10  9  1  1
 45 46  1  0
 19 22  1  0
 46 47  1  0
 10 11  1  0
  3 48  1  0
 16 23  1  0
 47 49  1  0
  5  6  1  0
 49 50  1  0
 23 24  1  0
 49 51  2  0
 50 52  1  0
 23 25  2  0
 52 53  1  0
  2  3  1  0
 52 54  1  0
 23 26  1  0
 53 55  1  0
  3  6  2  0
 55 56  1  0
 24 27  1  0
 56 57  1  0
 11 12  1  0
 57 58  1  0
M  END

> <chembl_id>
CHEMBL251720

> <chembl_pref_name>
None

$$$$

     RDKit          2D

 15 13  0  0  0  0  0  0  0  0999 V2000
    1.0500   -3.3042    0.0000 Br  0  0  0  0  0  0  0  0  0  0  0  0
    5.4667    0.2458    0.0000 C   0  0  0  0  0  0  0  0  0  0  0  0
    6.2167    0.5875    0.0000 C   0  0  0  0  0  0  0  0  0  0  0  0
    1.9500    0.9875    0.0000 C   0  0  0  0  0  0  0  0  0  0  0  0
    1.1792   -0.1417    0.0000 N   0  0  0  0  0  0  0  0  0  0  0  0
    5.3917   -0.5750    0.0000 O   0  0  0  0  0  0  0  0  0  0  0  0
    1.9500    1.7958    0.0000 O   0  0  0  0  0  0  0  0  0  0  0  0
    4.7917    0.7208    0.0000 S   0  0  0  0  0  0  0  0  0  0  0  0
    2.6167    0.5083    0.0000 N   0  0  0  0  0  0  0  0  0  0  0  0
    1.1875    0.7208    0.0000 C   0  0  0  0  0  0  0  0  0  0  0  0
    6.8917    0.1125    0.0000 C   0  0  0  0  0  0  0  0  0  0  0  0
    6.2917    1.4125    0.0000 C   0  0  0  0  0  0  0  0  0  0  0  0
    7.0125    0.8083    0.0000 C   0  0  0  0  0  0  0  0  0  0  0  0
    4.0417    0.3833    0.0000 C   0  0  0  0  0  0  0  0  0  0  0  0
    3.3667    0.8583    0.0000 C   0  0  0  0  0  0  0  0  0  0  0  0
  3  2  1  0
  4  9  1  0
  5 10  1  0
  6  2  2  0
  7  4  2  0
  8  2  1  0
  9 15  1  0
 10  4  1  0
 11  3  1  0
 12  3  1  0
 13  3  1  0
 14  8  1  0
 15 14  1  0
M  END

> <chembl_id>
CHEMBL68560

> <chembl_pref_name>
None

$$$$
 
     RDKit          2D

 41 42  0  0  0  0  0  0  0  0999 V2000
    7.0899   -7.0617    0.0000 C   0  0  0  0  0  0  0  0  0  0  0  0
    7.8017   -6.6490    0.0000 C   0  0  0  0  0  0  0  0  0  0  0  0
    8.5136   -7.0617    0.0000 N   0  0  0  0  0  0  0  0  0  0  0  0
    7.8017   -5.8276    0.0000 O   0  0  0  0  0  0  0  0  0  0  0  0
    9.2213   -6.6490    0.0000 C   0  0  0  0  0  0  0  0  0  0  0  0
    9.9285   -7.0626    0.0000 C   0  0  0  0  0  0  0  0  0  0  0  0
    9.2148   -5.8277    0.0000 C   0  0  0  0  0  0  0  0  0  0  0  0
    9.9307   -5.4209    0.0000 S   0  0  0  0  0  0  0  0  0  0  0  0
   10.6487   -4.1922    0.0000 C   0  0  0  0  0  0  0  0  0  0  0  0
    9.9314   -4.6008    0.0000 C   0  0  0  0  0  0  0  0  0  0  0  0
   11.3591   -4.6094    0.0000 N   0  0  0  0  0  0  0  0  0  0  0  0
   12.7807   -4.6258    0.0000 C   0  0  0  0  0  0  0  0  0  0  0  0
   12.0724   -4.2023    0.0000 C   0  0  0  0  0  0  0  0  0  0  0  0
   10.6357   -6.6531    0.0000 N   0  0  0  0  0  0  0  0  0  0  0  0
   11.3389   -7.0671    0.0000 C   0  0  0  0  0  0  0  0  0  0  0  0
   12.0515   -6.6612    0.0000 C   0  0  0  0  0  0  0  0  0  0  0  0
   12.7533   -7.0751    0.0000 N   0  0  0  0  0  0  0  0  0  0  0  0
   13.4656   -6.6718    0.0000 C   0  0  0  0  0  0  0  0  0  0  0  0
   13.4717   -5.8540    0.0000 C   0  0  0  0  0  0  0  0  0  0  0  0
   12.7654   -5.4397    0.0000 N   0  0  0  0  0  0  0  0  0  0  0  0
    9.2213   -4.1851    0.0000 O   0  0  0  0  0  0  0  0  0  0  0  0
   12.0807   -3.3810    0.0000 O   0  0  0  0  0  0  0  0  0  0  0  0
   14.1870   -5.4515    0.0000 O   0  0  0  0  0  0  0  0  0  0  0  0
   12.0577   -5.8399    0.0000 O   0  0  0  0  0  0  0  0  0  0  0  0
    9.9267   -7.8839    0.0000 O   0  0  0  0  0  0  0  0  0  0  0  0
   11.3330   -7.8884    0.0000 C   0  0  0  0  0  0  0  0  0  0  0  0
   14.1697   -7.0907    0.0000 C   0  0  0  0  0  0  0  0  0  0  0  0
   14.1624   -7.9120    0.0000 C   0  0  0  0  0  0  0  0  0  0  0  0
   13.4990   -4.2246    0.0000 C   0  0  0  0  0  0  0  0  0  0  0  0
   14.2042   -4.6488    0.0000 C   0  0  0  0  0  0  0  0  0  0  0  0
   13.5123   -3.4034    0.0000 C   0  0  0  0  0  0  0  0  0  0  0  0
   14.2307   -3.0063    0.0000 C   0  0  0  0  0  0  0  0  0  0  0  0
   10.6542   -3.3709    0.0000 C   0  0  0  0  0  0  0  0  0  0  0  0
    9.9450   -2.9576    0.0000 C   0  0  0  0  0  0  0  0  0  0  0  0
    9.9505   -2.1363    0.0000 S   0  0  0  0  0  0  0  0  0  0  0  0
    9.2414   -1.7189    0.0000 C   0  0  0  0  0  0  0  0  0  0  0  0
   13.4480   -8.3108    0.0000 C   0  0  0  0  0  0  0  0  0  0  0  0
   13.4404   -9.1313    0.0000 C   0  0  0  0  0  0  0  0  0  0  0  0
   14.1450   -9.5511    0.0000 C   0  0  0  0  0  0  0  0  0  0  0  0
   14.8628   -9.1403    0.0000 C   0  0  0  0  0  0  0  0  0  0  0  0
   14.8669   -8.3211    0.0000 C   0  0  0  0  0  0  0  0  0  0  0  0
  1  2  1  0
  2  3  1  0
  2  4  2  0
  5  3  1  6
  5  6  1  0
  5  7  1  0
  6 14  1  0
  8  7  1  0
  8 10  1  0
 11  9  1  0
  9 10  1  0
 11 13  1  0
 12 20  1  1
 12 13  1  0
 14 15  1  0
 15 16  1  0
 16 17  1  0
 17 18  1  0
 18 19  1  0
 19 20  1  0
 10 21  2  0
 13 22  2  0
 19 23  2  0
 16 24  2  0
  6 25  2  0
 15 26  1  1
 18 27  1  1
 27 28  1  0
 12 29  1  0
 29 30  1  6
 29 31  1  0
 31 32  1  0
  9 33  1  1
 33 34  1  0
 34 35  1  0
 35 36  1  0
 28 37  2  0
 37 38  1  0
 38 39  2  0
 39 40  1  0
 40 41  2  0
 41 28  1  0
M  END

> <chembl_id>
CHEMBL4444020

> <chembl_pref_name>
None

$$$$

     RDKit          2D

 24 22  0  0  0  0  0  0  0  0999 V2000
   23.2998    0.3750    0.0000 Cl  0  0  0  0  0  0  0  0  0  0  0  0
   14.2999    0.7500    0.0000 C   0  0  0  0  0  0  0  0  0  0  0  0
   12.9999    0.0000    0.0000 C   0  0  0  0  0  0  0  0  0  0  0  0
   11.6999    0.7500    0.0000 C   0  0  0  0  0  0  0  0  0  0  0  0
   10.3999    0.0000    0.0000 C   0  0  0  0  0  0  0  0  0  0  0  0
   12.9999   -1.2000    0.0000 N   0  0  0  0  0  0  0  0  0  0  0  0
   14.2999    1.9500    0.0000 O   0  0  0  0  0  0  0  0  0  0  0  0
   15.5999    0.0000    0.0000 O   0  0  0  0  0  0  0  0  0  0  0  0
   16.8999    0.7500    0.0000 C   0  0  0  0  0  0  0  0  0  0  0  0
   18.1999    0.0000    0.0000 C   0  0  0  0  0  0  0  0  0  0  0  0
    9.0999    0.7500    0.0000 C   0  0  0  0  0  0  0  0  0  0  0  0
    7.7999    0.0000    0.0000 N   0  0  0  0  0  0  0  0  0  0  0  0
    9.0999    1.9500    0.0000 O   0  0  0  0  0  0  0  0  0  0  0  0
    6.5000    0.7500    0.0000 C   0  0  0  0  0  0  0  0  0  0  0  0
    5.2000    0.0000    0.0000 C   0  0  0  0  0  0  0  0  0  0  0  0
    3.9000    0.7500    0.0000 S   0  0  0  0  0  0  0  0  0  0  0  0
    2.6000    0.0000    0.0000 C   0  0  0  0  0  0  0  0  0  0  0  0
    1.3000    0.7500    0.0000 C   0  0  0  0  0  0  0  0  0  0  0  0
    2.6000   -1.2000    0.0000 O   0  0  0  0  0  0  0  0  0  0  0  0
    0.2606    0.1503    0.0000 C   0  0  0  0  0  0  0  0  0  0  0  0
    1.3000    1.9500    0.0000 C   0  0  0  0  0  0  0  0  0  0  0  0
    0.2609    1.3502    0.0000 C   0  0  0  0  0  0  0  0  0  0  0  0
   19.4998    0.7500    0.0000 C   0  0  0  0  0  0  0  0  0  0  0  0
   20.5393    0.1503    0.0000 C   0  0  0  0  0  0  0  0  0  0  0  0
  2  3  1  0
  3  4  1  0
  4  5  1  0
  3  6  1  1
  2  7  2  0
  9 10  1  0
  8  9  1  0
  2  8  1  0
 11 12  1  0
 11 13  2  0
 14 15  1  0
 17 18  1  0
 17 19  2  0
 16 17  1  0
 15 16  1  0
 12 14  1  0
  5 11  1  0
 18 20  1  0
 18 21  1  0
 18 22  1  0
 10 23  1  0
 23 24  1  0
M  END

> <chembl_id>
CHEMBL3765680

> <chembl_pref_name>
None

$$$$

     RDKit          2D

 58 60  0  0  0  0  0  0  0  0999 V2000
   -1.4477   -0.4818    0.0000 P   0  0  0  0  0  0  0  0  0  0  0  0
   -1.0352   -1.1963    0.0000 O   0  0  0  0  0  0  0  0  0  0  0  0
   -1.8602    0.2327    0.0000 O   0  0  0  0  0  0  0  0  0  0  0  0
   -2.1622   -0.8943    0.0000 O   0  0  0  0  0  0  0  0  0  0  0  0
   -0.7332   -0.0693    0.0000 O   0  0  0  0  0  0  0  0  0  0  0  0
   -2.8767   -0.4818    0.0000 P   0  0  0  0  0  0  0  0  0  0  0  0
   -3.2892   -1.1963    0.0000 O   0  0  0  0  0  0  0  0  0  0  0  0
   -2.4642    0.2327    0.0000 O   0  0  0  0  0  0  0  0  0  0  0  0
   -3.5911   -0.0693    0.0000 O   0  0  0  0  0  0  0  0  0  0  0  0
   -4.3056   -0.4818    0.0000 C   0  0  0  0  0  0  0  0  0  0  0  0
   -5.0201   -0.0693    0.0000 C   0  0  0  0  0  0  0  0  0  0  0  0
   -5.7737   -0.4049    0.0000 O   0  0  0  0  0  0  0  0  0  0  0  0
   -5.1063    0.7512    0.0000 C   0  0  0  0  0  0  0  0  0  0  0  0
   -4.4932    1.3032    0.0000 O   0  0  0  0  0  0  0  0  0  0  0  0
   -5.9133    0.9227    0.0000 C   0  0  0  0  0  0  0  0  0  0  0  0
   -6.2488    1.6764    0.0000 O   0  0  0  0  0  0  0  0  0  0  0  0
   -6.3258    0.2082    0.0000 C   0  0  0  0  0  0  0  0  0  0  0  0
   -3.7086    1.0483    0.0000 P   0  0  0  0  0  0  0  0  0  0  0  0
   -3.9635    0.2636    0.0000 O   0  0  0  0  0  0  0  0  0  0  0  0
   -3.4536    1.8329    0.0000 O   0  0  0  0  0  0  0  0  0  0  0  0
   -2.9240    0.7933    0.0000 O   0  0  0  0  0  0  0  0  0  0  0  0
   -7.1463    0.1220    0.0000 N   0  0  0  0  0  0  0  0  0  0  0  0
   -7.5588   -0.5925    0.0000 C   0  0  0  0  0  0  0  0  0  0  0  0
   -7.3038   -1.3771    0.0000 N   0  0  0  0  0  0  0  0  0  0  0  0
   -7.8558   -1.9902    0.0000 C   0  0  0  0  0  0  0  0  0  0  0  0
   -8.6628   -1.8187    0.0000 N   0  0  0  0  0  0  0  0  0  0  0  0
   -8.9178   -1.0340    0.0000 C   0  0  0  0  0  0  0  0  0  0  0  0
   -8.3657   -0.4209    0.0000 C   0  0  0  0  0  0  0  0  0  0  0  0
   -8.4520    0.3995    0.0000 N   0  0  0  0  0  0  0  0  0  0  0  0
   -7.6983    0.7351    0.0000 C   0  0  0  0  0  0  0  0  0  0  0  0
   -9.7247   -0.8625    0.0000 N   0  0  0  0  0  0  0  0  0  0  0  0
    0.6957   -0.0693    0.0000 C   0  0  0  0  0  0  0  0  0  0  0  0
   -0.0188   -0.4818    0.0000 C   0  0  0  0  0  0  0  0  0  0  0  0
    1.1082   -0.7838    0.0000 C   0  0  0  0  0  0  0  0  0  0  0  0
    0.2832    0.6452    0.0000 C   0  0  0  0  0  0  0  0  0  0  0  0
    1.4102    0.3432    0.0000 C   0  0  0  0  0  0  0  0  0  0  0  0
    1.4102    1.1682    0.0000 O   0  0  0  0  0  0  0  0  0  0  0  0
    2.1246   -0.0693    0.0000 C   0  0  0  0  0  0  0  0  0  0  0  0
    2.1246   -0.8943    0.0000 O   0  0  0  0  0  0  0  0  0  0  0  0
    2.8391    0.3432    0.0000 N   0  0  0  0  0  0  0  0  0  0  0  0
    3.5536   -0.0693    0.0000 C   0  0  0  0  0  0  0  0  0  0  0  0
    4.2681    0.3432    0.0000 C   0  0  0  0  0  0  0  0  0  0  0  0
    4.9825   -0.0693    0.0000 C   0  0  0  0  0  0  0  0  0  0  0  0
    4.9825   -0.8943    0.0000 O   0  0  0  0  0  0  0  0  0  0  0  0
    5.6970    0.3432    0.0000 N   0  0  0  0  0  0  0  0  0  0  0  0
    6.4115   -0.0693    0.0000 C   0  0  0  0  0  0  0  0  0  0  0  0
    7.1259    0.3432    0.0000 C   0  0  0  0  0  0  0  0  0  0  0  0
    7.8404   -0.0693    0.0000 S   0  0  0  0  0  0  0  0  0  0  0  0
    8.5549    0.3432    0.0000 C   0  0  0  0  0  0  0  0  0  0  0  0
    8.5549    1.1682    0.0000 O   0  0  0  0  0  0  0  0  0  0  0  0
    9.2694   -0.0693    0.0000 C   0  0  0  0  0  0  0  0  0  0  0  0
    9.9838    0.3432    0.0000 C   0  0  0  0  0  0  0  0  0  0  0  0
   10.3963   -0.3713    0.0000 O   0  0  0  0  0  0  0  0  0  0  0  0
   10.6983    0.7557    0.0000 C   0  0  0  0  0  0  0  0  0  0  0  0
   11.4128    0.3432    0.0000 C   0  0  0  0  0  0  0  0  0  0  0  0
   12.1272    0.7557    0.0000 O   0  0  0  0  0  0  0  0  0  0  0  0
   11.4128   -0.4818    0.0000 O   0  0  0  0  0  0  0  0  0  0  0  0
    9.5713    1.0577    0.0000 C   0  0  0  0  0  0  0  0  0  0  0  0
  2  1  2  0
  1  3  1  1
  1  4  1  6
  5  1  1  0
  6  4  1  6
 33  5  1  0
  7  6  2  0
  6  8  1  1
  9  6  1  0
 10  9  1  0
 11 10  1  1
 11 12  1  0
 13 11  1  0
 17 12  1  0
 13 14  1  6
 15 13  1  0
 14 18  1  0
 15 16  1  6
 17 15  1  0
 17 22  1  1
 19 18  2  0
 20 18  1  0
 21 18  1  0
 23 22  1  0
 30 22  1  0
 23 24  1  0
 23 28  2  0
 25 24  2  0
 25 26  1  0
 27 26  2  0
 28 27  1  0
 27 31  1  0
 28 29  1  0
 30 29  2  0
 32 33  1  0
 32 34  1  0
 32 35  1  0
 36 32  1  0
 36 37  1  1
 38 36  1  0
 38 39  2  0
 38 40  1  0
 41 40  1  0
 42 41  1  0
 43 42  1  0
 43 44  2  0
 43 45  1  0
 46 45  1  0
 47 46  1  0
 47 48  1  0
 49 48  1  0
 49 50  2  0
 49 51  1  0
 51 52  1  0
 52 53  1  1
 52 54  1  0
 52 58  1  1
 54 55  1  0
 55 56  2  0
 55 57  1  0
M  END

> <chembl_id>
CHEMBL1794644

> <chembl_pref_name>
3-HYDROXY-3-METHYLGLUTARYL-COENZYME A

$$$$

     RDKit          2D

 45 47  0  0  0  0  0  0  0  0999 V2000
    4.3804   -6.7061    0.0000 N   0  0  0  0  0  0  0  0  0  0  0  0
    5.0984   -5.4666    0.0000 O   0  0  0  0  0  0  0  0  0  0  0  0
    8.6679   -9.1810    0.0000 O   0  0  0  0  0  0  0  0  0  0  0  0
    5.8124   -7.5311    0.0000 C   0  0  0  0  0  0  0  0  0  0  0  0
    3.6665   -6.2916    0.0000 C   0  0  0  0  0  0  0  0  0  0  0  0
    6.5262   -7.9415    0.0000 C   0  0  0  0  0  0  0  0  0  0  0  0
    2.2387   -7.9415    0.0000 C   0  0  0  0  0  0  0  0  0  0  0  0
    7.2401   -4.2312    0.0000 N   0  0  0  0  0  0  0  0  0  0  0  0
    5.8124   -3.4062    0.0000 C   0  0  0  0  0  0  0  0  0  0  0  0
    7.2401   -9.1810    0.0000 C   0  0  0  0  0  0  0  0  0  0  0  0
    5.0984   -6.2916    0.0000 C   0  0  0  0  0  0  0  0  0  0  0  0
    3.6665   -3.8167    0.0000 C   0  0  0  0  0  0  0  0  0  0  0  0
    2.9526   -7.5311    0.0000 C   0  0  0  0  0  0  0  0  0  0  0  0
    2.2387   -8.7665    0.0000 C   0  0  0  0  0  0  0  0  0  0  0  0
    5.8124   -5.0562    0.0000 O   0  0  0  0  0  0  0  0  0  0  0  0
    5.8124   -4.2312    0.0000 C   0  0  0  0  0  0  0  0  0  0  0  0
    3.6665   -8.7665    0.0000 C   0  0  0  0  0  0  0  0  0  0  0  0
    2.9526   -2.5812    0.0000 C   0  0  0  0  0  0  0  0  0  0  0  0
    3.6665   -2.9917    0.0000 N   0  0  0  0  0  0  0  0  0  0  0  0
    7.9540   -8.7665    0.0000 C   0  0  0  0  0  0  0  0  0  0  0  0
    7.9540   -7.9415    0.0000 C   0  0  0  0  0  0  0  0  0  0  0  0
    6.5262   -8.7665    0.0000 C   0  0  0  0  0  0  0  0  0  0  0  0
    4.3804   -4.2312    0.0000 C   0  0  0  0  0  0  0  0  0  0  0  0
    3.6665   -7.9415    0.0000 C   0  0  0  0  0  0  0  0  0  0  0  0
    7.2401   -7.5311    0.0000 C   0  0  0  0  0  0  0  0  0  0  0  0
    5.8124   -6.7061    0.0000 C   0  0  0  0  0  0  0  0  0  0  0  0
    2.9526   -1.7563    0.0000 O   0  0  0  0  0  0  0  0  0  0  0  0
    2.2387   -2.9917    0.0000 C   0  0  0  0  0  0  0  0  0  0  0  0
    2.9526   -9.1810    0.0000 C   0  0  0  0  0  0  0  0  0  0  0  0
    6.5262   -6.2916    0.0000 N   0  0  0  0  0  0  0  0  0  0  0  0
    3.6665   -5.4666    0.0000 C   0  0  0  0  0  0  0  0  0  0  0  0
    6.5262   -3.8167    0.0000 C   0  0  0  0  0  0  0  0  0  0  0  0
    6.5262   -2.9917    0.0000 O   0  0  0  0  0  0  0  0  0  0  0  0
    2.9526   -6.7061    0.0000 C   0  0  0  0  0  0  0  0  0  0  0  0
    7.2401   -5.0562    0.0000 C   0  0  0  0  0  0  0  0  0  0  0  0
    5.0984   -3.8167    0.0000 N   0  0  0  0  0  0  0  0  0  0  0  0
    4.8678   -4.8978    0.0000 O   0  0  0  0  0  0  0  0  0  0  0  0
    2.9526   -4.2312    0.0000 C   0  0  0  0  0  0  0  0  0  0  0  0
    2.9526   -5.0562    0.0000 S   0  0  0  0  0  0  0  0  0  0  0  0
    4.3804   -5.0562    0.0000 O   0  0  0  0  0  0  0  0  0  0  0  0
    5.0984   -2.9917    0.0000 C   0  0  0  0  0  0  0  0  0  0  0  0
    7.9540   -5.4666    0.0000 C   0  0  0  0  0  0  0  0  0  0  0  0
    6.5262   -5.4666    0.0000 C   0  0  0  0  0  0  0  0  0  0  0  0
    5.1005   -2.1704    0.0000 N   0  0  0  0  0  0  0  0  0  0  0  0
    4.3862   -3.4005    0.0000 O   0  0  0  0  0  0  0  0  0  0  0  0
 43 15  2  0
 14  7  2  0
 32 33  2  0
  6 25  2  0
 40 31  2  0
 20 10  1  0
 38 12  1  0
 35 42  1  1
 25 21  1  0
 26  4  1  1
 43 35  1  0
 16 32  1  0
 11 26  1  0
  5 34  1  1
 26 30  1  0
  1 11  1  0
 35  8  1  0
 39 38  1  0
 13 24  2  0
  4  6  1  0
  9 41  1  0
  8 32  1  0
 19 18  1  0
  6 22  1  0
 11  2  2  0
 23 36  1  0
 23 37  2  0
 31 39  1  0
 34 13  1  0
 18 27  2  0
  5  1  1  0
 21 20  2  0
 17 29  2  0
 20  3  1  0
 31  5  1  0
 18 28  1  0
 16  9  1  6
 10 22  2  0
 13  7  1  0
 12 19  1  6
 24 17  1  0
 29 14  1  0
 30 43  1  0
 36 16  1  0
 12 23  1  0
 41 44  1  0
 41 45  2  0
M  END

> <chembl_id>
CHEMBL3947978

> <chembl_pref_name>
None

$$$$

     RDKit          2D

 41 42  0  0  0  0  0  0  0  0999 V2000
    2.2334   -2.6542    0.0000 C   0  0  0  0  0  0  0  0  0  0  0  0
    3.6574   -2.6542    0.0000 N   0  0  0  0  0  0  0  0  0  0  0  0
    2.9454   -2.2375    0.0000 C   0  0  0  0  0  0  0  0  0  0  0  0
    1.5177   -2.2438    0.0000 O   0  0  0  0  0  0  0  0  0  0  0  0
    2.9454   -1.4125    0.0000 C   0  0  0  0  0  0  0  0  0  0  0  0
    2.2309   -1.0000    0.0000 C   0  0  0  0  0  0  0  0  0  0  0  0
    2.2354   -0.1739    0.0000 C   0  0  0  0  0  0  0  0  0  0  0  0
    1.5218    0.2385    0.0000 C   0  0  0  0  0  0  0  0  0  0  0  0
    0.8063   -0.1741    0.0000 C   0  0  0  0  0  0  0  0  0  0  0  0
    0.8090   -1.0033    0.0000 C   0  0  0  0  0  0  0  0  0  0  0  0
    1.5232   -1.4120    0.0000 C   0  0  0  0  0  0  0  0  0  0  0  0
    4.3743   -2.2459    0.0000 C   0  0  0  0  0  0  0  0  0  0  0  0
    5.0863   -2.6625    0.0000 C   0  0  0  0  0  0  0  0  0  0  0  0
    4.3791   -1.4209    0.0000 O   0  0  0  0  0  0  0  0  0  0  0  0
    5.0815   -3.4875    0.0000 N   0  0  0  0  0  0  0  0  0  0  0  0
    5.8032   -2.2542    0.0000 C   0  0  0  0  0  0  0  0  0  0  0  0
    5.8080   -1.4292    0.0000 C   0  0  0  0  0  0  0  0  0  0  0  0
    6.5249   -1.0209    0.0000 C   0  0  0  0  0  0  0  0  0  0  0  0
    5.0960   -1.0126    0.0000 C   0  0  0  0  0  0  0  0  0  0  0  0
    5.7935   -3.9042    0.0000 C   0  0  0  0  0  0  0  0  0  0  0  0
    5.7887   -4.7292    0.0000 C   0  0  0  0  0  0  0  0  0  0  0  0
    6.5104   -3.4959    0.0000 O   0  0  0  0  0  0  0  0  0  0  0  0
    5.0718   -5.1375    0.0000 N   0  0  0  0  0  0  0  0  0  0  0  0
    6.5007   -5.1459    0.0000 C   0  0  0  0  0  0  0  0  0  0  0  0
    7.2176   -4.7376    0.0000 O   0  0  0  0  0  0  0  0  0  0  0  0
    4.3598   -4.7208    0.0000 C   0  0  0  0  0  0  0  0  0  0  0  0
    3.6429   -5.1291    0.0000 C   0  0  0  0  0  0  0  0  0  0  0  0
    4.3729   -3.9083    0.0000 O   0  0  0  0  0  0  0  0  0  0  0  0
    2.9309   -4.7124    0.0000 N   0  0  0  0  0  0  0  0  0  0  0  0
    3.6381   -5.9541    0.0000 C   0  0  0  0  0  0  0  0  0  0  0  0
    4.3501   -6.3708    0.0000 O   0  0  0  0  0  0  0  0  0  0  0  0
    2.2140   -5.1207    0.0000 C   0  0  0  0  0  0  0  0  0  0  0  0
    1.5019   -4.7041    0.0000 C   0  0  0  0  0  0  0  0  0  0  0  0
    2.2091   -5.9457    0.0000 O   0  0  0  0  0  0  0  0  0  0  0  0
    1.5068   -3.8791    0.0000 C   0  0  0  0  0  0  0  0  0  0  0  0
    2.2237   -3.4708    0.0000 S   0  0  0  0  0  0  0  0  0  0  0  0
    0.7851   -5.1124    0.0000 N   0  0  0  0  0  0  0  0  0  0  0  0
    0.0730   -4.6957    0.0000 C   0  0  0  0  0  0  0  0  0  0  0  0
   -0.6439   -5.1040    0.0000 C   0  0  0  0  0  0  0  0  0  0  0  0
    0.0779   -3.8707    0.0000 O   0  0  0  0  0  0  0  0  0  0  0  0
    4.1833   -3.4042    0.0000 C   0  0  0  0  0  0  0  0  0  0  0  0
 15 20  1  0
  9 10  1  0
 20 21  1  0
  3  5  1  6
 20 22  2  0
 10 11  2  0
 21 23  1  0
 11  6  1  0
 21 24  1  6
  1  3  1  0
 24 25  1  0
  2 12  1  0
 23 26  1  0
  5  6  1  0
 26 27  1  0
 12 13  1  0
 26 28  2  0
  2  3  1  0
 27 29  1  0
 12 14  2  0
 27 30  1  6
  6  7  2  0
 30 31  1  0
 13 15  1  0
 29 32  1  0
  1 36  1  0
 33 32  1  0
 13 16  1  6
 32 34  2  0
  7  8  1  0
 33 35  1  0
 16 17  1  0
 35 36  1  0
  1  4  2  0
 33 37  1  1
 17 18  1  0
 37 38  1  0
  8  9  2  0
 38 39  1  0
 17 19  1  0
 38 40  2  0
 15 41  1  0
M  END

> <chembl_id>
CHEMBL1824150

> <chembl_pref_name>
None

$$$$

     RDKit          2D

 41 42  0  0  0  0  0  0  0  0999 V2000
    5.4833  -24.7667    0.0000 C   0  0  0  0  0  0  0  0  0  0  0  0
    6.9074  -24.7667    0.0000 N   0  0  0  0  0  0  0  0  0  0  0  0
    6.1954  -24.3500    0.0000 C   0  0  0  0  0  0  0  0  0  0  0  0
    4.7677  -24.3563    0.0000 O   0  0  0  0  0  0  0  0  0  0  0  0
    6.1954  -23.5250    0.0000 C   0  0  0  0  0  0  0  0  0  0  0  0
    5.4809  -23.1125    0.0000 C   0  0  0  0  0  0  0  0  0  0  0  0
    5.4854  -22.2864    0.0000 C   0  0  0  0  0  0  0  0  0  0  0  0
    4.7717  -21.8740    0.0000 C   0  0  0  0  0  0  0  0  0  0  0  0
    4.0563  -22.2866    0.0000 C   0  0  0  0  0  0  0  0  0  0  0  0
    4.0589  -23.1158    0.0000 C   0  0  0  0  0  0  0  0  0  0  0  0
    4.7732  -23.5245    0.0000 C   0  0  0  0  0  0  0  0  0  0  0  0
    7.6242  -24.3584    0.0000 C   0  0  0  0  0  0  0  0  0  0  0  0
    8.3363  -24.7750    0.0000 C   0  0  0  0  0  0  0  0  0  0  0  0
    7.6291  -23.5334    0.0000 O   0  0  0  0  0  0  0  0  0  0  0  0
    8.3315  -25.6000    0.0000 N   0  0  0  0  0  0  0  0  0  0  0  0
    9.0532  -24.3667    0.0000 C   0  0  0  0  0  0  0  0  0  0  0  0
    9.0580  -23.5417    0.0000 C   0  0  0  0  0  0  0  0  0  0  0  0
    9.7749  -23.1334    0.0000 C   0  0  0  0  0  0  0  0  0  0  0  0
    8.3460  -23.1251    0.0000 C   0  0  0  0  0  0  0  0  0  0  0  0
    9.0435  -26.0167    0.0000 C   0  0  0  0  0  0  0  0  0  0  0  0
    9.0387  -26.8417    0.0000 C   0  0  0  0  0  0  0  0  0  0  0  0
    9.7604  -25.6084    0.0000 O   0  0  0  0  0  0  0  0  0  0  0  0
    8.3218  -27.2500    0.0000 N   0  0  0  0  0  0  0  0  0  0  0  0
    9.7507  -27.2584    0.0000 C   0  0  0  0  0  0  0  0  0  0  0  0
   10.4676  -26.8501    0.0000 O   0  0  0  0  0  0  0  0  0  0  0  0
    7.6097  -26.8333    0.0000 C   0  0  0  0  0  0  0  0  0  0  0  0
    6.8929  -27.2416    0.0000 C   0  0  0  0  0  0  0  0  0  0  0  0
    7.6146  -26.0083    0.0000 O   0  0  0  0  0  0  0  0  0  0  0  0
    6.1808  -26.8249    0.0000 N   0  0  0  0  0  0  0  0  0  0  0  0
    6.8880  -28.0666    0.0000 C   0  0  0  0  0  0  0  0  0  0  0  0
    7.6001  -28.4833    0.0000 O   0  0  0  0  0  0  0  0  0  0  0  0
    5.4639  -27.2332    0.0000 C   0  0  0  0  0  0  0  0  0  0  0  0
    4.7519  -26.8166    0.0000 C   0  0  0  0  0  0  0  0  0  0  0  0
    5.4591  -28.0582    0.0000 O   0  0  0  0  0  0  0  0  0  0  0  0
    4.7567  -25.9916    0.0000 C   0  0  0  0  0  0  0  0  0  0  0  0
    5.4736  -25.5833    0.0000 S   0  0  0  0  0  0  0  0  0  0  0  0
    4.0350  -27.2249    0.0000 N   0  0  0  0  0  0  0  0  0  0  0  0
    3.3230  -26.8082    0.0000 C   0  0  0  0  0  0  0  0  0  0  0  0
    2.6061  -27.2165    0.0000 C   0  0  0  0  0  0  0  0  0  0  0  0
    3.3278  -25.9832    0.0000 O   0  0  0  0  0  0  0  0  0  0  0  0
    6.1857  -26.0000    0.0000 C   0  0  0  0  0  0  0  0  0  0  0  0
 15 20  1  0
  9 10  1  0
 20 21  1  0
  3  5  1  6
 20 22  2  0
 10 11  2  0
 21 23  1  0
 11  6  1  0
 21 24  1  6
  1  3  1  0
 24 25  1  0
  2 12  1  0
 23 26  1  0
  5  6  1  0
 26 27  1  0
 12 13  1  0
 26 28  2  0
  2  3  1  0
 27 29  1  0
 12 14  2  0
 27 30  1  6
  6  7  2  0
 30 31  1  0
 13 15  1  0
 29 32  1  0
  1 36  1  0
 33 32  1  0
 13 16  1  6
 32 34  2  0
  7  8  1  0
 33 35  1  0
 16 17  1  0
 35 36  1  0
  1  4  2  0
 33 37  1  1
 17 18  1  0
 37 38  1  0
  8  9  2  0
 38 39  1  0
 17 19  1  0
 38 40  2  0
 29 41  1  0
M  END

> <chembl_id>
CHEMBL1824148

> <chembl_pref_name>
None

$$$$
 
     RDKit          2D

 37 38  0  0  0  0  0  0  0  0999 V2000
   12.7886   -7.4290    0.0000 C   0  0  0  0  0  0  0  0  0  0  0  0
   13.4844   -7.0221    0.0000 C   0  0  0  0  0  0  0  0  0  0  0  0
   14.1844   -7.4290    0.0000 N   0  0  0  0  0  0  0  0  0  0  0  0
   13.4844   -6.2164    0.0000 O   0  0  0  0  0  0  0  0  0  0  0  0
   14.8762   -7.0221    0.0000 C   0  0  0  0  0  0  0  0  0  0  0  0
   15.5758   -7.4299    0.0000 C   0  0  0  0  0  0  0  0  0  0  0  0
   14.8700   -6.2164    0.0000 C   0  0  0  0  0  0  0  0  0  0  0  0
   15.5780   -5.8194    0.0000 S   0  0  0  0  0  0  0  0  0  0  0  0
   16.2798   -4.6119    0.0000 C   0  0  0  0  0  0  0  0  0  0  0  0
   15.5787   -5.0148    0.0000 C   0  0  0  0  0  0  0  0  0  0  0  0
   16.9742   -5.0231    0.0000 N   0  0  0  0  0  0  0  0  0  0  0  0
   18.3721   -5.0390    0.0000 C   0  0  0  0  0  0  0  0  0  0  0  0
   17.6756   -4.6216    0.0000 C   0  0  0  0  0  0  0  0  0  0  0  0
   16.2672   -7.0260    0.0000 N   0  0  0  0  0  0  0  0  0  0  0  0
   16.9588   -7.4342    0.0000 C   0  0  0  0  0  0  0  0  0  0  0  0
   17.6554   -7.0339    0.0000 C   0  0  0  0  0  0  0  0  0  0  0  0
   18.3415   -7.4420    0.0000 N   0  0  0  0  0  0  0  0  0  0  0  0
   19.0519   -6.2419    0.0000 C   0  0  0  0  0  0  0  0  0  0  0  0
   18.3532   -5.8375    0.0000 N   0  0  0  0  0  0  0  0  0  0  0  0
   14.8763   -4.6050    0.0000 O   0  0  0  0  0  0  0  0  0  0  0  0
   17.6836   -3.8159    0.0000 O   0  0  0  0  0  0  0  0  0  0  0  0
   19.7511   -5.8489    0.0000 O   0  0  0  0  0  0  0  0  0  0  0  0
   17.6614   -6.2282    0.0000 O   0  0  0  0  0  0  0  0  0  0  0  0
   15.5741   -8.2356    0.0000 O   0  0  0  0  0  0  0  0  0  0  0  0
   16.2850   -3.8062    0.0000 C   0  0  0  0  0  0  0  0  0  0  0  0
   15.5918   -3.4029    0.0000 C   0  0  0  0  0  0  0  0  0  0  0  0
   15.6002   -2.5991    0.0000 C   0  0  0  0  0  0  0  0  0  0  0  0
   14.9037   -2.1917    0.0000 C   0  0  0  0  0  0  0  0  0  0  0  0
   14.2022   -2.5936    0.0000 C   0  0  0  0  0  0  0  0  0  0  0  0
   14.2015   -3.4029    0.0000 C   0  0  0  0  0  0  0  0  0  0  0  0
   14.8986   -3.8025    0.0000 C   0  0  0  0  0  0  0  0  0  0  0  0
   19.0784   -4.6432    0.0000 C   0  0  0  0  0  0  0  0  0  0  0  0
   19.0911   -3.8376    0.0000 C   0  0  0  0  0  0  0  0  0  0  0  0
   19.7933   -3.4458    0.0000 C   0  0  0  0  0  0  0  0  0  0  0  0
   18.4021   -3.4270    0.0000 C   0  0  0  0  0  0  0  0  0  0  0  0
   16.9531   -8.2390    0.0000 C   0  0  0  0  0  0  0  0  0  0  0  0
   16.2508   -8.6344    0.0000 O   0  0  0  0  0  0  0  0  0  0  0  0
  1  2  1  0
  2  3  1  0
  2  4  2  0
  5  3  1  0
  5  6  1  0
  5  7  1  1
  6 14  1  0
  8  7  1  0
  8 10  1  0
 11  9  1  0
  9 10  1  0
 11 13  1  0
 12 19  1  0
 12 13  1  0
 14 15  1  0
 15 16  1  0
 16 17  1  0
 18 19  1  0
 10 20  2  0
 13 21  2  0
 18 22  2  0
 16 23  2  0
  6 24  2  0
  9 25  1  6
 25 26  1  0
 26 27  2  0
 27 28  1  0
 28 29  2  0
 29 30  1  0
 30 31  2  0
 31 26  1  0
 12 32  1  6
 32 33  1  0
 33 34  1  0
 33 35  1  0
 15 36  1  6
 36 37  1  0
 17 18  1  0
M  END

> <chembl_id>
CHEMBL4472175

> <chembl_pref_name>
None

$$$$

     RDKit          2D

 20 18  0  0  0  0  0  0  0  0999 V2000
   20.6999    0.3750    0.0000 Cl  0  0  0  0  0  0  0  0  0  0  0  0
   12.9999    0.0000    0.0000 C   0  0  0  0  0  0  0  0  0  0  0  0
   11.6999    0.7500    0.0000 C   0  0  0  0  0  0  0  0  0  0  0  0
   10.3999    0.0000    0.0000 C   0  0  0  0  0  0  0  0  0  0  0  0
    9.0999    0.7500    0.0000 C   0  0  0  0  0  0  0  0  0  0  0  0
   11.6999    1.9500    0.0000 N   0  0  0  0  0  0  0  0  0  0  0  0
   12.9999   -1.2000    0.0000 O   0  0  0  0  0  0  0  0  0  0  0  0
   14.2999    0.7500    0.0000 O   0  0  0  0  0  0  0  0  0  0  0  0
   15.5999    0.0000    0.0000 C   0  0  0  0  0  0  0  0  0  0  0  0
   16.8999    0.7500    0.0000 C   0  0  0  0  0  0  0  0  0  0  0  0
    7.7999    0.0000    0.0000 C   0  0  0  0  0  0  0  0  0  0  0  0
    6.5000    0.7500    0.0000 N   0  0  0  0  0  0  0  0  0  0  0  0
    7.7999   -1.2000    0.0000 O   0  0  0  0  0  0  0  0  0  0  0  0
    5.2000    0.0000    0.0000 C   0  0  0  0  0  0  0  0  0  0  0  0
    3.9000    0.7500    0.0000 C   0  0  0  0  0  0  0  0  0  0  0  0
    2.6000    0.0000    0.0000 S   0  0  0  0  0  0  0  0  0  0  0  0
    1.3000    0.7500    0.0000 C   0  0  0  0  0  0  0  0  0  0  0  0
    0.2606    0.1503    0.0000 O   0  0  0  0  0  0  0  0  0  0  0  0
    1.3000    1.9500    0.0000 C   0  0  0  0  0  0  0  0  0  0  0  0
   17.9393    0.1503    0.0000 C   0  0  0  0  0  0  0  0  0  0  0  0
  2  3  1  0
  3  4  1  0
  4  5  1  0
  3  6  1  6
  2  7  2  0
  9 10  1  0
  8  9  1  0
  2  8  1  0
 11 12  1  0
 11 13  2  0
 14 15  1  0
 17 18  2  0
 17 19  1  0
 16 17  1  0
 15 16  1  0
 12 14  1  0
  5 11  1  0
 10 20  1  0
M  END

> <chembl_id>
CHEMBL3764605

> <chembl_pref_name>
None

$$$$

     RDKit          2D

 40 41  0  0  0  0  0  0  0  0999 V2000
   24.1749   -8.2298    0.0000 C   0  0  0  0  0  0  0  0  0  0  0  0
   28.4624   -0.8050    0.0000 O   0  0  0  0  0  0  0  0  0  0  0  0
   28.4624   -5.7549    0.0000 N   0  0  0  0  0  0  0  0  0  0  0  0
   27.7486   -4.5195    0.0000 C   0  0  0  0  0  0  0  0  0  0  0  0
   26.5473   -5.0882    0.0000 O   0  0  0  0  0  0  0  0  0  0  0  0
   27.7486   -6.1695    0.0000 C   0  0  0  0  0  0  0  0  0  0  0  0
   27.0347   -3.2799    0.0000 C   0  0  0  0  0  0  0  0  0  0  0  0
   27.0347   -2.4550    0.0000 C   0  0  0  0  0  0  0  0  0  0  0  0
   23.4611   -4.5195    0.0000 C   0  0  0  0  0  0  0  0  0  0  0  0
   24.8889   -6.9944    0.0000 C   0  0  0  0  0  0  0  0  0  0  0  0
   24.1749   -3.2799    0.0000 C   0  0  0  0  0  0  0  0  0  0  0  0
   25.6027   -3.2799    0.0000 C   0  0  0  0  0  0  0  0  0  0  0  0
   25.6027   -2.4550    0.0000 S   0  0  0  0  0  0  0  0  0  0  0  0
   22.7471   -3.2799    0.0000 C   0  0  0  0  0  0  0  0  0  0  0  0
   27.7486   -2.0446    0.0000 N   0  0  0  0  0  0  0  0  0  0  0  0
   26.3208   -6.1695    0.0000 N   0  0  0  0  0  0  0  0  0  0  0  0
   24.8889   -8.6444    0.0000 C   0  0  0  0  0  0  0  0  0  0  0  0
   28.4624   -7.4048    0.0000 O   0  0  0  0  0  0  0  0  0  0  0  0
   26.3208   -2.0446    0.0000 C   0  0  0  0  0  0  0  0  0  0  0  0
   25.6027   -8.2298    0.0000 C   0  0  0  0  0  0  0  0  0  0  0  0
   27.0347   -4.9299    0.0000 C   0  0  0  0  0  0  0  0  0  0  0  0
   29.1764   -4.5195    0.0000 O   0  0  0  0  0  0  0  0  0  0  0  0
   27.7486   -3.6945    0.0000 N   0  0  0  0  0  0  0  0  0  0  0  0
   24.8889   -6.1695    0.0000 C   0  0  0  0  0  0  0  0  0  0  0  0
   26.6975   -4.0332    0.0000 O   0  0  0  0  0  0  0  0  0  0  0  0
   23.4611   -3.6945    0.0000 C   0  0  0  0  0  0  0  0  0  0  0  0
   24.8889   -4.5195    0.0000 N   0  0  0  0  0  0  0  0  0  0  0  0
   28.4624   -4.9299    0.0000 C   0  0  0  0  0  0  0  0  0  0  0  0
   27.7486   -6.9944    0.0000 C   0  0  0  0  0  0  0  0  0  0  0  0
   27.0347   -5.7549    0.0000 C   0  0  0  0  0  0  0  0  0  0  0  0
   27.7486   -1.2196    0.0000 C   0  0  0  0  0  0  0  0  0  0  0  0
   27.0347   -0.8050    0.0000 C   0  0  0  0  0  0  0  0  0  0  0  0
   24.8889   -3.6945    0.0000 C   0  0  0  0  0  0  0  0  0  0  0  0
   25.6027   -7.4048    0.0000 C   0  0  0  0  0  0  0  0  0  0  0  0
   25.6027   -4.9299    0.0000 C   0  0  0  0  0  0  0  0  0  0  0  0
   24.1749   -7.4048    0.0000 C   0  0  0  0  0  0  0  0  0  0  0  0
   25.6027   -5.7549    0.0000 C   0  0  0  0  0  0  0  0  0  0  0  0
   24.8889   -9.4694    0.0000 O   0  0  0  0  0  0  0  0  0  0  0  0
   26.3208   -3.6945    0.0000 O   0  0  0  0  0  0  0  0  0  0  0  0
   26.3208   -4.5195    0.0000 O   0  0  0  0  0  0  0  0  0  0  0  0
 27 35  1  0
  7 25  2  0
 11 26  1  0
 26  9  1  0
 29 18  1  0
 10 36  1  0
  7 23  1  0
  4 28  1  0
 24 10  1  0
 35 40  2  0
 23  4  1  0
  6  3  1  0
 10 34  2  0
 39 12  2  0
 37 16  1  0
  8 15  1  6
  8  7  1  0
 33 11  1  1
 33 27  1  0
 30  5  2  0
 30  6  1  0
 20 17  2  0
 12 33  1  0
 34 20  1  0
 15 31  1  0
  3 28  1  0
  6 29  1  1
 19  8  1  0
  4 21  1  6
 12 13  1  0
 16 30  1  0
  1 36  2  0
 31  2  2  0
 13 19  1  0
 35 37  1  0
 17 38  1  0
 26 14  1  0
 28 22  2  0
 31 32  1  0
 17  1  1  0
 37 24  1  1
M  END

> <chembl_id>
CHEMBL3904402

> <chembl_pref_name>
None

$$$$

     RDKit          2D

 18 16  0  0  0  0  0  0  0  0999 V2000
    4.6792   -0.8542    0.0000 C   0  0  0  0  0  0  0  0  0  0  0  0
    8.2000   -1.6000    0.0000 C   0  0  0  0  0  0  0  0  0  0  0  0
    3.9125   -1.9875    0.0000 N   0  0  0  0  0  0  0  0  0  0  0  0
    4.6792   -0.0542    0.0000 O   0  0  0  0  0  0  0  0  0  0  0  0
    8.1250   -2.4167    0.0000 O   0  0  0  0  0  0  0  0  0  0  0  0
    5.3542   -1.3375    0.0000 N   0  0  0  0  0  0  0  0  0  0  0  0
    7.5292   -1.1250    0.0000 S   0  0  0  0  0  0  0  0  0  0  0  0
    3.9167   -1.1250    0.0000 C   0  0  0  0  0  0  0  0  0  0  0  0
    8.9500   -1.2542    0.0000 C   0  0  0  0  0  0  0  0  0  0  0  0
    6.1042   -0.9917    0.0000 C   0  0  0  0  0  0  0  0  0  0  0  0
    6.7792   -1.4667    0.0000 C   0  0  0  0  0  0  0  0  0  0  0  0
    3.7417   -4.9667    0.0000 C   0  0  0  0  0  0  0  0  0  0  0  0
    3.7417   -5.7917    0.0000 C   0  0  0  0  0  0  0  0  0  0  0  0
    4.4542   -6.2042    0.0000 O   0  0  0  0  0  0  0  0  0  0  0  0
    3.0292   -6.2042    0.0000 O   0  0  0  0  0  0  0  0  0  0  0  0
    4.3542   -4.4750    0.0000 F   0  0  0  0  0  0  0  0  0  0  0  0
    3.1375   -4.4750    0.0000 F   0  0  0  0  0  0  0  0  0  0  0  0
    3.7417   -4.2875    0.0000 F   0  0  0  0  0  0  0  0  0  0  0  0
  2  7  1  0
  3  8  1  0
  4  1  2  0
  5  2  2  0
  6  1  1  0
  7 11  1  0
  8  1  1  0
  9  2  1  0
 10  6  1  0
 11 10  1  0
 13 12  1  0
 14 13  1  0
 15 13  2  0
 16 12  1  0
 17 12  1  0
 18 12  1  0
M  END

> <chembl_id>
CHEMBL302793

> <chembl_pref_name>
None

$$$$
 
     RDKit          2D

 44 45  0  0  0  0  0  0  0  0999 V2000
   27.2941   -6.2874    0.0000 C   0  0  0  0  0  0  0  0  0  0  0  0
   28.0024   -6.6985    0.0000 N   0  0  0  0  0  0  0  0  0  0  0  0
   27.2941   -5.4693    0.0000 O   0  0  0  0  0  0  0  0  0  0  0  0
   28.7066   -6.2874    0.0000 C   0  0  0  0  0  0  0  0  0  0  0  0
   29.4144   -6.6993    0.0000 C   0  0  0  0  0  0  0  0  0  0  0  0
   28.7003   -5.4694    0.0000 C   0  0  0  0  0  0  0  0  0  0  0  0
   29.4166   -5.0641    0.0000 S   0  0  0  0  0  0  0  0  0  0  0  0
   30.1308   -3.8401    0.0000 C   0  0  0  0  0  0  0  0  0  0  0  0
   29.4173   -4.2472    0.0000 C   0  0  0  0  0  0  0  0  0  0  0  0
   30.8376   -4.2555    0.0000 N   0  0  0  0  0  0  0  0  0  0  0  0
   32.2561   -4.2713    0.0000 C   0  0  0  0  0  0  0  0  0  0  0  0
   31.5472   -3.8498    0.0000 C   0  0  0  0  0  0  0  0  0  0  0  0
   30.1181   -6.2914    0.0000 N   0  0  0  0  0  0  0  0  0  0  0  0
   30.8180   -6.7037    0.0000 C   0  0  0  0  0  0  0  0  0  0  0  0
   31.5270   -6.2993    0.0000 C   0  0  0  0  0  0  0  0  0  0  0  0
   32.2255   -6.7115    0.0000 N   0  0  0  0  0  0  0  0  0  0  0  0
   32.9383   -6.3094    0.0000 C   0  0  0  0  0  0  0  0  0  0  0  0
   32.9442   -5.4948    0.0000 C   0  0  0  0  0  0  0  0  0  0  0  0
   32.2372   -5.0822    0.0000 N   0  0  0  0  0  0  0  0  0  0  0  0
   28.7066   -3.8332    0.0000 O   0  0  0  0  0  0  0  0  0  0  0  0
   31.5553   -3.0318    0.0000 O   0  0  0  0  0  0  0  0  0  0  0  0
   33.6557   -5.0936    0.0000 O   0  0  0  0  0  0  0  0  0  0  0  0
   31.5330   -5.4812    0.0000 O   0  0  0  0  0  0  0  0  0  0  0  0
   29.4127   -7.5174    0.0000 O   0  0  0  0  0  0  0  0  0  0  0  0
   33.6390   -6.7265    0.0000 C   0  0  0  0  0  0  0  0  0  0  0  0
   33.6320   -7.5446    0.0000 C   0  0  0  0  0  0  0  0  0  0  0  0
   30.1360   -3.0220    0.0000 C   0  0  0  0  0  0  0  0  0  0  0  0
   29.4304   -2.6104    0.0000 C   0  0  0  0  0  0  0  0  0  0  0  0
   32.9706   -3.8714    0.0000 C   0  0  0  0  0  0  0  0  0  0  0  0
   32.9834   -3.0534    0.0000 C   0  0  0  0  0  0  0  0  0  0  0  0
   33.6979   -2.6575    0.0000 C   0  0  0  0  0  0  0  0  0  0  0  0
   32.2861   -2.6345    0.0000 C   0  0  0  0  0  0  0  0  0  0  0  0
   29.4341   -1.7932    0.0000 C   0  0  0  0  0  0  0  0  0  0  0  0
   28.7209   -3.0158    0.0000 C   0  0  0  0  0  0  0  0  0  0  0  0
   32.9181   -7.9463    0.0000 C   0  0  0  0  0  0  0  0  0  0  0  0
   32.9108   -8.7636    0.0000 C   0  0  0  0  0  0  0  0  0  0  0  0
   33.6163   -9.1796    0.0000 C   0  0  0  0  0  0  0  0  0  0  0  0
   34.3306   -8.7722    0.0000 C   0  0  0  0  0  0  0  0  0  0  0  0
   34.3345   -7.9562    0.0000 C   0  0  0  0  0  0  0  0  0  0  0  0
   30.8123   -7.5209    0.0000 C   0  0  0  0  0  0  0  0  0  0  0  0
   31.5171   -7.9344    0.0000 C   0  0  0  0  0  0  0  0  0  0  0  0
   31.5114   -8.7516    0.0000 O   0  0  0  0  0  0  0  0  0  0  0  0
   32.2277   -7.5308    0.0000 O   0  0  0  0  0  0  0  0  0  0  0  0
   26.5860   -6.6952    0.0000 C   0  0  0  0  0  0  0  0  0  0  0  0
  1  2  1  0
  1  3  2  0
  4  2  1  0
  4  5  1  0
  4  6  1  1
  5 13  1  0
  7  6  1  0
  7  9  1  0
 10  8  1  0
  8  9  1  0
 10 12  1  0
 11 19  1  0
 11 12  1  0
 13 14  1  0
 14 15  1  0
 15 16  1  0
 16 17  1  0
 17 18  1  0
 18 19  1  0
  9 20  2  0
 12 21  2  0
 18 22  2  0
 15 23  2  0
  5 24  2  0
 17 25  1  1
 25 26  1  0
  8 27  1  1
 27 28  1  0
 11 29  1  1
 29 30  1  0
 30 31  1  0
 30 32  1  0
 28 33  1  0
 28 34  1  0
 26 35  2  0
 35 36  1  0
 36 37  2  0
 37 38  1  0
 38 39  2  0
 39 26  1  0
 14 40  1  1
 40 41  1  0
 41 42  2  0
 41 43  1  0
  1 44  1  0
M  END

> <chembl_id>
CHEMBL4476116

> <chembl_pref_name>
None

$$$$
 
     RDKit          2D

 47 50  0  0  0  0  0  0  0  0999 V2000
   16.5750   -3.6974    0.0000 C   0  0  0  0  0  0  0  0  0  0  0  0
   15.7578   -3.6974    0.0000 C   0  0  0  0  0  0  0  0  0  0  0  0
   15.3469   -4.4057    0.0000 C   0  0  0  0  0  0  0  0  0  0  0  0
   15.7578   -5.1095    0.0000 S   0  0  0  0  0  0  0  0  0  0  0  0
   15.3514   -5.8133    0.0000 C   0  0  0  0  0  0  0  0  0  0  0  0
   15.7578   -6.5216    0.0000 C   0  0  0  0  0  0  0  0  0  0  0  0
   16.9813   -4.4057    0.0000 N   0  0  0  0  0  0  0  0  0  0  0  0
   16.5730   -6.5250    0.0000 N   0  0  0  0  0  0  0  0  0  0  0  0
   16.9874   -7.2305    0.0000 C   0  0  0  0  0  0  0  0  0  0  0  0
   17.8096   -7.2266    0.0000 C   0  0  0  0  0  0  0  0  0  0  0  0
   17.7917   -4.4018    0.0000 C   0  0  0  0  0  0  0  0  0  0  0  0
   19.4211   -4.4079    0.0000 C   0  0  0  0  0  0  0  0  0  0  0  0
   19.0149   -3.7000    0.0000 O   0  0  0  0  0  0  0  0  0  0  0  0
   18.1972   -3.6961    0.0000 C   0  0  0  0  0  0  0  0  0  0  0  0
   18.1900   -6.4919    0.0000 N   0  0  0  0  0  0  0  0  0  0  0  0
   18.9896   -6.4974    0.0000 C   0  0  0  0  0  0  0  0  0  0  0  0
   19.3926   -5.8060    0.0000 C   0  0  0  0  0  0  0  0  0  0  0  0
   20.1533   -4.8123    0.0000 C   0  0  0  0  0  0  0  0  0  0  0  0
   20.1780   -5.5883    0.0000 O   0  0  0  0  0  0  0  0  0  0  0  0
   19.3943   -7.2074    0.0000 O   0  0  0  0  0  0  0  0  0  0  0  0
   16.5832   -7.9407    0.0000 O   0  0  0  0  0  0  0  0  0  0  0  0
   14.5342   -5.8122    0.0000 O   0  0  0  0  0  0  0  0  0  0  0  0
   16.9845   -2.9903    0.0000 O   0  0  0  0  0  0  0  0  0  0  0  0
   15.3499   -2.9893    0.0000 N   0  0  0  0  0  0  0  0  0  0  0  0
   14.5327   -2.9885    0.0000 C   0  0  0  0  0  0  0  0  0  0  0  0
   14.1248   -2.2803    0.0000 C   0  0  0  0  0  0  0  0  0  0  0  0
   14.1234   -3.6957    0.0000 O   0  0  0  0  0  0  0  0  0  0  0  0
   15.3467   -7.2279    0.0000 C   0  0  0  0  0  0  0  0  0  0  0  0
   14.5295   -7.2251    0.0000 C   0  0  0  0  0  0  0  0  0  0  0  0
   18.2359   -7.9237    0.0000 C   0  0  0  0  0  0  0  0  0  0  0  0
   17.8453   -8.6416    0.0000 C   0  0  0  0  0  0  0  0  0  0  0  0
   17.0392   -8.7506    0.0000 C   0  0  0  0  0  0  0  0  0  0  0  0
   16.8895   -9.5539    0.0000 C   0  0  0  0  0  0  0  0  0  0  0  0
   17.6074   -9.9445    0.0000 C   0  0  0  0  0  0  0  0  0  0  0  0
   18.2005   -9.3825    0.0000 C   0  0  0  0  0  0  0  0  0  0  0  0
   14.1279   -6.5150    0.0000 C   0  0  0  0  0  0  0  0  0  0  0  0
   13.3115   -6.5118    0.0000 C   0  0  0  0  0  0  0  0  0  0  0  0
   12.8996   -7.2186    0.0000 C   0  0  0  0  0  0  0  0  0  0  0  0
   13.3102   -7.9301    0.0000 C   0  0  0  0  0  0  0  0  0  0  0  0
   14.1253   -7.9298    0.0000 C   0  0  0  0  0  0  0  0  0  0  0  0
   13.3076   -2.2795    0.0000 C   0  0  0  0  0  0  0  0  0  0  0  0
   12.9014   -1.5659    0.0000 C   0  0  0  0  0  0  0  0  0  0  0  0
   12.0850   -1.5647    0.0000 C   0  0  0  0  0  0  0  0  0  0  0  0
   11.6748   -2.2726    0.0000 C   0  0  0  0  0  0  0  0  0  0  0  0
   12.0871   -2.9830    0.0000 C   0  0  0  0  0  0  0  0  0  0  0  0
   12.9022   -2.9807    0.0000 C   0  0  0  0  0  0  0  0  0  0  0  0
   12.9016   -8.6378    0.0000 Cl  0  0  0  0  0  0  0  0  0  0  0  0
  4  3  1  0
  7  1  1  0
  1  2  1  0
  2  3  1  0
  4  5  1  0
  5  6  1  0
  6  8  1  0
  7 11  1  0
  8  9  1  0
  9 10  1  0
 10 15  1  0
 11 14  1  0
 12 13  1  0
 13 14  1  0
 15 16  1  0
 16 17  1  0
 12 18  1  0
 17 19  1  0
 19 18  1  0
 16 20  2  0
  9 21  2  0
  5 22  2  0
  1 23  2  0
  2 24  1  1
 24 25  1  0
 25 26  1  0
 25 27  2  0
  6 28  1  1
 28 29  1  0
 10 30  1  1
 30 31  1  0
 31 32  1  0
 32 33  1  0
 33 34  1  0
 34 35  1  0
 35 31  1  0
 29 36  2  0
 36 37  1  0
 37 38  2  0
 38 39  1  0
 39 40  2  0
 40 29  1  0
 26 41  1  0
 41 42  2  0
 42 43  1  0
 43 44  2  0
 44 45  1  0
 45 46  2  0
 46 41  1  0
 39 47  1  0
M  END

> <chembl_id>
CHEMBL4446060

> <chembl_pref_name>
None

$$$$

     RDKit          2D

 32 32  0  0  1  0  0  0  0  0999 V2000
    1.0814   -4.6471    0.0000 C   0  0  0  0  0  0  0  0  0  0  0  0
    1.4948   -5.3528    0.0000 C   0  0  0  0  0  0  0  0  0  0  0  0
    1.9081   -4.5594    0.0000 C   0  0  0  0  0  0  0  0  0  0  0  0
    0.6012   -3.9749    0.0000 C   0  0  0  0  0  0  0  0  0  0  0  0
    0.0167   -3.8872    0.0000 S   0  0  0  0  0  0  0  0  0  0  0  0
    1.9207   -3.0981    0.0000 C   0  0  0  0  0  0  0  0  0  0  0  0
    1.0940   -3.0981    0.0000 N   0  0  0  0  0  0  0  0  0  0  0  0
    1.3946   -3.7620    0.0000 O   0  0  0  0  0  0  0  0  0  0  0  0
    4.7139   -1.7704    0.0000 C   0  0  0  0  0  0  0  0  0  0  0  0
    5.4279   -1.3570    0.0000 C   0  0  0  0  0  0  0  0  0  0  0  0
    4.0000   -1.3653    0.0000 C   0  0  0  0  0  0  0  0  0  0  0  0
    2.3340   -2.3799    0.0000 O   0  0  0  0  0  0  0  0  0  0  0  0
    0.4301   -1.7829    0.0000 C   0  0  0  0  0  0  0  0  0  0  0  0
    3.2860   -1.7787    0.0000 C   0  0  0  0  0  0  0  0  0  0  0  0
    1.1441   -1.3695    0.0000 C   0  0  0  0  0  0  0  0  0  0  0  0
    6.8559   -3.0062    0.0000 C   0  0  0  0  0  0  0  0  0  0  0  0
    6.8559   -3.8329    0.0000 C   0  0  0  0  0  0  0  0  0  0  0  0
   -0.2380   -3.0981    0.0000 C   0  0  0  0  0  0  0  0  0  0  0  0
    6.1419   -1.7704    0.0000 C   0  0  0  0  0  0  0  0  0  0  0  0
    0.4301   -2.6096    0.0000 C   0  0  0  0  0  0  0  0  0  0  0  0
    2.2797   -3.9749    0.0000 C   0  0  0  0  0  0  0  0  0  0  0  0
    6.8559   -1.3570    0.0000 C   0  0  0  0  0  0  0  0  0  0  0  0
    8.2838   -1.3445    0.0000 O   0  0  0  0  0  0  0  0  0  0  0  0
    2.3716   -3.6618    0.0000 C   0  0  0  0  0  0  0  0  0  0  0  0
    7.5699   -1.7662    0.0000 C   0  0  0  0  0  0  0  0  0  0  0  0
    7.5699   -2.5929    0.0000 C   0  0  0  0  0  0  0  0  0  0  0  0
    2.5720   -1.3695    0.0000 C   0  0  0  0  0  0  0  0  0  0  0  0
    1.8580   -1.7829    0.0000 C   0  0  0  0  0  0  0  0  0  0  0  0
    5.4237   -0.5303    0.0000 C   0  0  0  0  0  0  0  0  0  0  0  0
    8.9978   -1.7578    0.0000 C   0  0  0  0  0  0  0  0  0  0  0  0
    0.7516   -5.4029    0.0000 H   0  0  0  0  0  0  0  0  0  0  0  0
    2.4927   -5.1398    0.0000 H   0  0  0  0  0  0  0  0  0  0  0  0
  2  1  1  0
  3  1  1  0
  4  1  1  0
  5  4  1  0
  6  7  1  0
  7 20  1  0
  8  4  2  0
  9 11  1  0
 10  9  2  0
 11 14  2  0
 12  6  2  0
 20 13  1  1
 14 27  1  0
 15 13  2  0
 16 26  1  0
 17 16  2  0
 18  5  1  0
 19 10  1  0
 20 18  1  0
 21  3  1  0
 22 19  1  0
 25 23  1  1
 24  6  1  0
 25 22  1  0
 26 25  1  0
 27 28  1  0
 28 15  1  0
 29 10  1  0
 30 23  1  0
  1 31  1  6
  3 32  1  6
  2  3  1  0
M  END

> <chembl_id>
CHEMBL2369026

> <chembl_pref_name>
None

$$$$

     RDKit          2D

 64 68  0  0  0  0  0  0  0  0999 V2000
   13.8871  -28.8958    0.0000 C   0  0  0  0  0  0  0  0  0  0  0  0
   14.5943  -29.3053    0.0000 C   0  0  0  0  0  0  0  0  0  0  0  0
   13.8881  -28.0786    0.0000 O   0  0  0  0  0  0  0  0  0  0  0  0
   14.5932  -30.1225    0.0000 O   0  0  0  0  0  0  0  0  0  0  0  0
   15.3025  -28.8976    0.0000 C   0  0  0  0  0  0  0  0  0  0  0  0
   16.0097  -29.3071    0.0000 C   0  0  0  0  0  0  0  0  0  0  0  0
   15.8774  -28.3128    0.0000 C   0  0  0  0  0  0  0  0  0  0  0  0
   14.7177  -28.3128    0.0000 C   0  0  0  0  0  0  0  0  0  0  0  0
   16.7179  -28.8994    0.0000 O   0  0  0  0  0  0  0  0  0  0  0  0
   17.4251  -29.3089    0.0000 P   0  0  0  0  0  0  0  0  0  0  0  0
   18.1333  -28.9013    0.0000 O   0  0  0  0  0  0  0  0  0  0  0  0
   17.0083  -30.0132    0.0000 O   0  0  0  0  0  0  0  0  0  0  0  0
   17.9988  -29.8853    0.0000 O   0  0  0  0  0  0  0  0  0  0  0  0
   18.8405  -29.3108    0.0000 P   0  0  0  0  0  0  0  0  0  0  0  0
   18.6221  -30.0958    0.0000 O   0  0  0  0  0  0  0  0  0  0  0  0
   19.2411  -30.0132    0.0000 O   0  0  0  0  0  0  0  0  0  0  0  0
   19.5424  -28.8947    0.0000 O   0  0  0  0  0  0  0  0  0  0  0  0
   20.2548  -29.2952    0.0000 C   0  0  0  0  0  0  0  0  0  0  0  0
   20.8980  -28.7909    0.0000 C   0  0  0  0  0  0  0  0  0  0  0  0
   21.6799  -29.0135    0.0000 C   0  0  0  0  0  0  0  0  0  0  0  0
   22.1359  -28.3354    0.0000 C   0  0  0  0  0  0  0  0  0  0  0  0
   21.6318  -27.6921    0.0000 C   0  0  0  0  0  0  0  0  0  0  0  0
   20.8644  -27.9728    0.0000 O   0  0  0  0  0  0  0  0  0  0  0  0
   21.9606  -29.7810    0.0000 O   0  0  0  0  0  0  0  0  0  0  0  0
   22.9526  -28.3057    0.0000 O   0  0  0  0  0  0  0  0  0  0  0  0
   21.8700  -26.9113    0.0000 N   0  0  0  0  0  0  0  0  0  0  0  0
   21.8415  -25.5905    0.0000 N   0  0  0  0  0  0  0  0  0  0  0  0
   21.3769  -26.2639    0.0000 C   0  0  0  0  0  0  0  0  0  0  0  0
   22.6253  -25.8257    0.0000 C   0  0  0  0  0  0  0  0  0  0  0  0
   22.6394  -26.6436    0.0000 C   0  0  0  0  0  0  0  0  0  0  0  0
   23.3537  -27.0386    0.0000 N   0  0  0  0  0  0  0  0  0  0  0  0
   24.0544  -26.6168    0.0000 N   0  0  0  0  0  0  0  0  0  0  0  0
   24.0362  -25.7958    0.0000 C   0  0  0  0  0  0  0  0  0  0  0  0
   23.3215  -25.4045    0.0000 C   0  0  0  0  0  0  0  0  0  0  0  0
   23.3038  -24.5875    0.0000 N   0  0  0  0  0  0  0  0  0  0  0  0
   21.4363  -30.4078    0.0000 P   0  0  0  0  0  0  0  0  0  0  0  0
   21.8372  -31.1110    0.0000 O   0  0  0  0  0  0  0  0  0  0  0  0
   20.8508  -29.8234    0.0000 O   0  0  0  0  0  0  0  0  0  0  0  0
   20.8508  -30.9831    0.0000 O   0  0  0  0  0  0  0  0  0  0  0  0
    8.2291  -28.8881    0.0000 S   0  0  0  0  0  0  0  0  0  0  0  0
    8.9363  -29.2976    0.0000 C   0  0  0  0  0  0  0  0  0  0  0  0
    9.6445  -28.8899    0.0000 C   0  0  0  0  0  0  0  0  0  0  0  0
   10.3517  -29.2994    0.0000 N   0  0  0  0  0  0  0  0  0  0  0  0
   11.0599  -28.8917    0.0000 C   0  0  0  0  0  0  0  0  0  0  0  0
   11.7671  -29.3012    0.0000 C   0  0  0  0  0  0  0  0  0  0  0  0
   11.0610  -28.0745    0.0000 O   0  0  0  0  0  0  0  0  0  0  0  0
   12.4753  -28.8935    0.0000 C   0  0  0  0  0  0  0  0  0  0  0  0
   13.1825  -29.3030    0.0000 N   0  0  0  0  0  0  0  0  0  0  0  0
    7.5198  -29.2951    0.0000 C   0  0  0  0  0  0  0  0  0  0  0  0
    8.3081  -30.3227    0.0000 C   0  0  0  0  0  0  0  0  0  0  0  0
    7.5198  -30.1123    0.0000 C   0  0  0  0  0  0  0  0  0  0  0  0
    7.7317  -30.9002    0.0000 O   0  0  0  0  0  0  0  0  0  0  0  0
    3.2772  -30.1265    0.0000 C   0  0  0  0  0  0  0  0  0  0  0  0
    3.9862  -30.5328    0.0000 C   0  0  0  0  0  0  0  0  0  0  0  0
    4.6926  -30.1220    0.0000 C   0  0  0  0  0  0  0  0  0  0  0  0
    5.4017  -30.5283    0.0000 C   0  0  0  0  0  0  0  0  0  0  0  0
    6.1081  -30.1175    0.0000 C   0  0  0  0  0  0  0  0  0  0  0  0
    6.8171  -30.5238    0.0000 C   0  0  0  0  0  0  0  0  0  0  0  0
    6.8137  -28.8862    0.0000 O   0  0  0  0  0  0  0  0  0  0  0  0
    3.2776  -29.3101    0.0000 C   0  0  0  0  0  0  0  0  0  0  0  0
    2.5694  -28.9038    0.0000 C   0  0  0  0  0  0  0  0  0  0  0  0
    1.8620  -29.3147    0.0000 C   0  0  0  0  0  0  0  0  0  0  0  0
    1.8673  -30.1361    0.0000 C   0  0  0  0  0  0  0  0  0  0  0  0
    2.5760  -30.5387    0.0000 C   0  0  0  0  0  0  0  0  0  0  0  0
  1  2  1  0
  1  3  2  0
  2  4  1  1
  2  5  1  0
  5  6  1  0
  5  7  1  0
  5  8  1  0
  6  9  1  0
  9 10  1  0
 10 11  1  0
 10 12  2  0
 10 13  1  0
 11 14  1  0
 14 15  2  0
 14 16  1  0
 14 17  1  0
 17 18  1  0
 19 18  1  1
 19 20  1  0
 20 21  1  0
 21 22  1  0
 22 23  1  0
 23 19  1  0
 20 24  1  6
 21 25  1  6
 26 30  1  0
 29 27  1  0
 27 28  2  0
 28 26  1  0
 22 26  1  1
 29 30  2  0
 30 31  1  0
 31 32  2  0
 32 33  1  0
 33 34  2  0
 34 29  1  0
 34 35  1  0
 24 36  1  0
 36 37  1  0
 36 38  2  0
 36 39  1  0
 49 40  1  0
 40 41  1  0
 41 42  1  0
 42 43  1  0
 43 44  1  0
 44 45  1  0
 44 46  2  0
 45 47  1  0
 47 48  1  0
 48  1  1  0
 51 50  1  0
 52 51  1  0
 50 52  1  0
 53 54  1  0
 54 55  1  0
 55 56  1  0
 56 57  1  0
 57 58  1  0
 51 58  1  0
 51 49  1  0
 49 59  2  0
 53 60  2  0
 60 61  1  0
 61 62  2  0
 62 63  1  0
 63 64  2  0
 64 53  1  0
M  END

> <chembl_id>
CHEMBL2216795

> <chembl_pref_name>
None

$$$$
 
     RDKit          2D

 35 36  0  0  0  0  0  0  0  0999 V2000
   23.1067   -6.9420    0.0000 C   0  0  0  0  0  0  0  0  0  0  0  0
   23.8025   -6.5392    0.0000 C   0  0  0  0  0  0  0  0  0  0  0  0
   24.4942   -6.9420    0.0000 N   0  0  0  0  0  0  0  0  0  0  0  0
   23.8025   -5.7335    0.0000 O   0  0  0  0  0  0  0  0  0  0  0  0
   25.1860   -6.5392    0.0000 C   0  0  0  0  0  0  0  0  0  0  0  0
   25.8815   -6.9428    0.0000 C   0  0  0  0  0  0  0  0  0  0  0  0
   25.1798   -5.7335    0.0000 C   0  0  0  0  0  0  0  0  0  0  0  0
   25.8796   -5.3365    0.0000 S   0  0  0  0  0  0  0  0  0  0  0  0
   26.5813   -4.1372    0.0000 C   0  0  0  0  0  0  0  0  0  0  0  0
   25.8802   -4.5361    0.0000 C   0  0  0  0  0  0  0  0  0  0  0  0
   27.2758   -4.5444    0.0000 N   0  0  0  0  0  0  0  0  0  0  0  0
   28.6654   -4.5602    0.0000 C   0  0  0  0  0  0  0  0  0  0  0  0
   27.9689   -4.1470    0.0000 C   0  0  0  0  0  0  0  0  0  0  0  0
   26.5687   -6.5431    0.0000 N   0  0  0  0  0  0  0  0  0  0  0  0
   27.2562   -6.9472    0.0000 C   0  0  0  0  0  0  0  0  0  0  0  0
   27.9487   -6.5469    0.0000 C   0  0  0  0  0  0  0  0  0  0  0  0
   28.6348   -6.9508    0.0000 N   0  0  0  0  0  0  0  0  0  0  0  0
   29.3411   -5.7590    0.0000 C   0  0  0  0  0  0  0  0  0  0  0  0
   28.6465   -5.3546    0.0000 N   0  0  0  0  0  0  0  0  0  0  0  0
   25.1861   -4.1304    0.0000 O   0  0  0  0  0  0  0  0  0  0  0  0
   27.9769   -3.3454    0.0000 O   0  0  0  0  0  0  0  0  0  0  0  0
   30.0361   -5.3660    0.0000 O   0  0  0  0  0  0  0  0  0  0  0  0
   27.9547   -5.7453    0.0000 O   0  0  0  0  0  0  0  0  0  0  0  0
   25.8798   -7.7444    0.0000 O   0  0  0  0  0  0  0  0  0  0  0  0
   26.5866   -3.3357    0.0000 C   0  0  0  0  0  0  0  0  0  0  0  0
   25.8934   -2.9323    0.0000 C   0  0  0  0  0  0  0  0  0  0  0  0
   25.9018   -2.1327    0.0000 C   0  0  0  0  0  0  0  0  0  0  0  0
   25.2135   -1.7295    0.0000 C   0  0  0  0  0  0  0  0  0  0  0  0
   24.5120   -2.1272    0.0000 C   0  0  0  0  0  0  0  0  0  0  0  0
   24.5113   -2.9324    0.0000 C   0  0  0  0  0  0  0  0  0  0  0  0
   25.2084   -3.3320    0.0000 C   0  0  0  0  0  0  0  0  0  0  0  0
   29.3634   -4.1686    0.0000 C   0  0  0  0  0  0  0  0  0  0  0  0
   29.3762   -3.3671    0.0000 C   0  0  0  0  0  0  0  0  0  0  0  0
   30.0783   -2.9794    0.0000 C   0  0  0  0  0  0  0  0  0  0  0  0
   28.6955   -2.9565    0.0000 C   0  0  0  0  0  0  0  0  0  0  0  0
  1  2  1  0
  2  3  1  0
  2  4  2  0
  5  3  1  0
  5  6  1  0
  5  7  1  1
  6 14  1  0
  8  7  1  0
  8 10  1  0
 11  9  1  0
  9 10  1  0
 11 13  1  0
 12 19  1  0
 12 13  1  0
 14 15  1  0
 15 16  1  0
 16 17  1  0
 18 19  1  0
 10 20  2  0
 13 21  2  0
 18 22  2  0
 16 23  2  0
  6 24  2  0
  9 25  1  6
 25 26  1  0
 26 27  2  0
 27 28  1  0
 28 29  2  0
 29 30  1  0
 30 31  2  0
 31 26  1  0
 12 32  1  6
 32 33  1  0
 33 34  1  0
 33 35  1  0
 17 18  1  0
M  END

> <chembl_id>
CHEMBL4476090

> <chembl_pref_name>
None

$$$$

     RDKit          2D

 67 70  0  0  1  0  0  0  0  0999 V2000
    8.7375   -5.1042    0.0000 N   0  0  0  0  0  0  0  0  0  0  0  0
    8.7375   -6.0750    0.0000 C   0  0  0  0  0  0  0  0  0  0  0  0
    9.3042   -4.9375    0.0000 C   0  0  0  0  0  0  0  0  0  0  0  0
    9.3042   -4.3542    0.0000 C   0  0  0  0  0  0  0  0  0  0  0  0
    8.9042   -6.6167    0.0000 C   0  0  0  0  0  0  0  0  0  0  0  0
    6.4042   -7.6292    0.0000 C   0  0  0  0  0  0  0  0  0  0  0  0
    9.5292   -6.6167    0.0000 C   0  0  0  0  0  0  0  0  0  0  0  0
    8.7375   -4.1667    0.0000 N   0  0  0  0  0  0  0  0  0  0  0  0
    8.3917   -4.6292    0.0000 C   0  0  0  0  0  0  0  0  0  0  0  0
    9.2292   -5.7292    0.0000 O   0  0  0  0  0  0  0  0  0  0  0  0
   11.0500   -6.6042    0.0000 P   0  0  0  0  0  0  0  0  0  0  0  0
   11.8375   -7.5542    0.0000 P   0  0  0  0  0  0  0  0  0  0  0  0
   11.4500   -7.0875    0.0000 O   0  0  0  0  0  0  0  0  0  0  0  0
    9.6917   -6.0542    0.0000 C   0  0  0  0  0  0  0  0  0  0  0  0
    6.7042   -8.1542    0.0000 O   0  0  0  0  0  0  0  0  0  0  0  0
    9.6167   -7.6292    0.0000 P   0  0  0  0  0  0  0  0  0  0  0  0
    6.1042   -8.1542    0.0000 C   0  0  0  0  0  0  0  0  0  0  0  0
    6.8292   -7.2000    0.0000 C   0  0  0  0  0  0  0  0  0  0  0  0
    9.7917   -4.0542    0.0000 C   0  0  0  0  0  0  0  0  0  0  0  0
    9.8125   -5.2167    0.0000 N   0  0  0  0  0  0  0  0  0  0  0  0
    9.8542   -7.0875    0.0000 O   0  0  0  0  0  0  0  0  0  0  0  0
   10.2625   -4.3417    0.0000 N   0  0  0  0  0  0  0  0  0  0  0  0
   10.4792   -9.1167    0.0000 C   0  0  0  0  0  0  0  0  0  0  0  0
   11.7125   -9.0500    0.0000 C   0  0  0  0  0  0  0  0  0  0  0  0
   10.2167   -5.8917    0.0000 C   0  0  0  0  0  0  0  0  0  0  0  0
   11.0042   -8.8500    0.0000 C   0  0  0  0  0  0  0  0  0  0  0  0
   10.2625   -4.9167    0.0000 C   0  0  0  0  0  0  0  0  0  0  0  0
    8.3417   -9.1917    0.0000 C   0  0  0  0  0  0  0  0  0  0  0  0
   10.6792   -6.1542    0.0000 O   0  0  0  0  0  0  0  0  0  0  0  0
   12.2792   -8.1000    0.0000 O   0  0  0  0  0  0  0  0  0  0  0  0
   12.2667   -7.1917    0.0000 O   0  0  0  0  0  0  0  0  0  0  0  0
   10.6042   -6.9792    0.0000 O   0  0  0  0  0  0  0  0  0  0  0  0
    9.1292   -7.4042    0.0000 O   0  0  0  0  0  0  0  0  0  0  0  0
   12.2792   -8.7917    0.0000 C   0  0  0  0  0  0  0  0  0  0  0  0
    8.8500   -8.8667    0.0000 C   0  0  0  0  0  0  0  0  0  0  0  0
    6.6667   -6.6167    0.0000 O   0  0  0  0  0  0  0  0  0  0  0  0
   10.4792   -9.7125    0.0000 O   0  0  0  0  0  0  0  0  0  0  0  0
    8.3417   -9.8167    0.0000 O   0  0  0  0  0  0  0  0  0  0  0  0
    8.5792   -7.1042    0.0000 O   0  0  0  0  0  0  0  0  0  0  0  0
    9.8917   -8.8500    0.0000 N   0  0  0  0  0  0  0  0  0  0  0  0
   11.3917   -7.9167    0.0000 O   0  0  0  0  0  0  0  0  0  0  0  0
   11.5167   -6.1917    0.0000 O   0  0  0  0  0  0  0  0  0  0  0  0
    9.3375   -8.2542    0.0000 O   0  0  0  0  0  0  0  0  0  0  0  0
   10.1167   -7.8500    0.0000 O   0  0  0  0  0  0  0  0  0  0  0  0
    7.4125   -7.3500    0.0000 S   0  0  0  0  0  0  0  0  0  0  0  0
    9.7917   -3.4625    0.0000 N   0  0  0  0  0  0  0  0  0  0  0  0
    7.8667   -8.8875    0.0000 N   0  0  0  0  0  0  0  0  0  0  0  0
    5.9750   -7.2000    0.0000 C   0  0  0  0  0  0  0  0  0  0  0  0
    9.3750   -9.1500    0.0000 C   0  0  0  0  0  0  0  0  0  0  0  0
   11.0042   -8.2750    0.0000 O   0  0  0  0  0  0  0  0  0  0  0  0
   11.7000   -9.6167    0.0000 C   0  0  0  0  0  0  0  0  0  0  0  0
   11.7125   -8.4792    0.0000 C   0  0  0  0  0  0  0  0  0  0  0  0
    7.4125   -7.9542    0.0000 C   0  0  0  0  0  0  0  0  0  0  0  0
    7.8667   -8.2875    0.0000 C   0  0  0  0  0  0  0  0  0  0  0  0
    5.3917   -7.3542    0.0000 C   0  0  0  0  0  0  0  0  0  0  0  0
   -0.0583   -5.5750    0.0000 C   0  0  0  0  0  0  0  0  0  0  0  0
    0.3667   -6.0000    0.0000 C   0  0  0  0  0  0  0  0  0  0  0  0
    2.9542   -6.3792    0.0000 C   0  0  0  0  0  0  0  0  0  0  0  0
    2.3750   -6.5375    0.0000 C   0  0  0  0  0  0  0  0  0  0  0  0
    1.9542   -6.1167    0.0000 C   0  0  0  0  0  0  0  0  0  0  0  0
    1.3667   -6.2667    0.0000 C   0  0  0  0  0  0  0  0  0  0  0  0
    0.9500   -5.8417    0.0000 C   0  0  0  0  0  0  0  0  0  0  0  0
    4.9667   -6.9292    0.0000 C   0  0  0  0  0  0  0  0  0  0  0  0
    4.3792   -7.0792    0.0000 C   0  0  0  0  0  0  0  0  0  0  0  0
    3.9667   -6.6542    0.0000 C   0  0  0  0  0  0  0  0  0  0  0  0
    3.3792   -6.8125    0.0000 C   0  0  0  0  0  0  0  0  0  0  0  0
   -0.6375   -5.7292    0.0000 C   0  0  0  0  0  0  0  0  0  0  0  0
  2  1  1  6
  3  1  1  0
  4  3  2  0
  5  2  1  0
  6 18  1  0
  7  5  1  0
  8  9  2  0
  9  1  1  0
 10  2  1  0
 11 29  1  0
 12 13  1  0
 13 11  1  0
 14 10  1  0
 15  6  1  0
 16 21  1  0
 17  6  1  0
 18 45  1  0
 19  4  1  0
 20  3  1  0
  7 21  1  1
 22 27  1  0
 23 26  1  0
 24 34  1  0
 14 25  1  6
 26 24  1  0
 27 20  2  0
 28 35  1  0
 29 25  1  0
 30 12  1  0
 31 12  2  0
 32 11  2  0
 33 16  2  0
 34 30  1  0
 35 49  1  0
 36 18  2  0
 37 23  2  0
 38 28  2  0
  5 39  1  1
 40 23  1  0
 41 12  1  0
 42 11  1  0
 43 16  1  0
 44 16  1  0
 45 53  1  0
 46 19  1  0
 47 28  1  0
 48  6  1  0
 49 40  1  0
 50 26  1  0
 51 24  1  0
 52 24  1  0
 53 54  1  0
 54 47  1  0
 55 48  1  0
 56 57  1  0
 57 62  1  0
 58 66  1  0
 59 58  1  0
 60 59  1  0
 61 60  1  0
 62 61  1  0
 63 55  1  0
 64 63  1  0
 65 64  1  0
 66 65  1  0
 67 56  1  0
  4  8  1  0
  7 14  1  0
 19 22  2  0
 17 15  1  0
M  END

> <chembl_id>
CHEMBL275981

> <chembl_pref_name>
None

$$$$
 
     RDKit          2D

 70 73  0  0  0  0  0  0  0  0999 V2000
   20.4209   -1.6466    0.0000 N   0  0  0  0  0  0  0  0  0  0  0  0
   20.4209   -2.4431    0.0000 C   0  0  0  0  0  0  0  0  0  0  0  0
   21.1135   -3.6442    0.0000 O   0  0  0  0  0  0  0  0  0  0  0  0
   21.1135   -2.8476    0.0000 C   0  0  0  0  0  0  0  0  0  0  0  0
   19.7242   -2.8476    0.0000 C   0  0  0  0  0  0  0  0  0  0  0  0
   19.0358   -1.6466    0.0000 C   0  0  0  0  0  0  0  0  0  0  0  0
   19.0358   -2.4431    0.0000 C   0  0  0  0  0  0  0  0  0  0  0  0
   18.3432   -2.8476    0.0000 C   0  0  0  0  0  0  0  0  0  0  0  0
   17.6506   -2.4431    0.0000 C   0  0  0  0  0  0  0  0  0  0  0  0
   17.6506   -1.6466    0.0000 C   0  0  0  0  0  0  0  0  0  0  0  0
   18.3432   -1.2463    0.0000 C   0  0  0  0  0  0  0  0  0  0  0  0
   16.9580   -1.2463    0.0000 O   0  0  0  0  0  0  0  0  0  0  0  0
   21.8061   -2.4431    0.0000 N   0  0  0  0  0  0  0  0  0  0  0  0
   22.4946   -2.8476    0.0000 C   0  0  0  0  0  0  0  0  0  0  0  0
   23.1913   -4.0445    0.0000 O   0  0  0  0  0  0  0  0  0  0  0  0
   22.4946   -3.6442    0.0000 C   0  0  0  0  0  0  0  0  0  0  0  0
   23.1913   -2.4431    0.0000 C   0  0  0  0  0  0  0  0  0  0  0  0
   23.8838   -2.8476    0.0000 O   0  0  0  0  0  0  0  0  0  0  0  0
   21.8061   -4.0445    0.0000 N   0  0  0  0  0  0  0  0  0  0  0  0
   21.8061   -4.8411    0.0000 C   0  0  0  0  0  0  0  0  0  0  0  0
   20.4209   -4.8411    0.0000 O   0  0  0  0  0  0  0  0  0  0  0  0
   21.1135   -5.2455    0.0000 C   0  0  0  0  0  0  0  0  0  0  0  0
   22.4946   -5.2455    0.0000 C   0  0  0  0  0  0  0  0  0  0  0  0
   23.1913   -4.8411    0.0000 O   0  0  0  0  0  0  0  0  0  0  0  0
   22.4946   -6.0421    0.0000 C   0  0  0  0  0  0  0  0  0  0  0  0
   21.1135   -6.0421    0.0000 N   0  0  0  0  0  0  0  0  0  0  0  0
   20.4209   -6.4466    0.0000 C   0  0  0  0  0  0  0  0  0  0  0  0
   21.1135   -7.6435    0.0000 O   0  0  0  0  0  0  0  0  0  0  0  0
   20.4209   -7.2431    0.0000 C   0  0  0  0  0  0  0  0  0  0  0  0
   19.7242   -6.0421    0.0000 C   0  0  0  0  0  0  0  0  0  0  0  0
   19.7242   -5.2455    0.0000 S   0  0  0  0  0  0  0  0  0  0  0  0
   19.7242   -7.6435    0.0000 N   0  0  0  0  0  0  0  0  0  0  0  0
   19.7242   -8.4400    0.0000 C   0  0  0  0  0  0  0  0  0  0  0  0
   19.0358   -9.6410    0.0000 O   0  0  0  0  0  0  0  0  0  0  0  0
   19.0358   -8.8445    0.0000 C   0  0  0  0  0  0  0  0  0  0  0  0
   20.4209   -8.8445    0.0000 C   0  0  0  0  0  0  0  0  0  0  0  0
   20.4209   -9.6410    0.0000 C   0  0  0  0  0  0  0  0  0  0  0  0
   18.3432   -8.4400    0.0000 N   0  0  0  0  0  0  0  0  0  0  0  0
   17.6506   -8.8445    0.0000 C   0  0  0  0  0  0  0  0  0  0  0  0
   16.2655   -8.8445    0.0000 O   0  0  0  0  0  0  0  0  0  0  0  0
   16.9580   -8.4400    0.0000 C   0  0  0  0  0  0  0  0  0  0  0  0
   17.6506   -9.6410    0.0000 C   0  0  0  0  0  0  0  0  0  0  0  0
   16.2655   -9.6410    0.0000 C   0  0  0  0  0  0  0  0  0  0  0  0
   16.9580  -10.0455    0.0000 C   0  0  0  0  0  0  0  0  0  0  0  0
   16.9580  -10.8421    0.0000 C   0  0  0  0  0  0  0  0  0  0  0  0
   16.2655  -11.2424    0.0000 C   0  0  0  0  0  0  0  0  0  0  0  0
   15.5729  -10.8421    0.0000 C   0  0  0  0  0  0  0  0  0  0  0  0
   15.5729  -10.0455    0.0000 C   0  0  0  0  0  0  0  0  0  0  0  0
   16.9580   -7.6435    0.0000 N   0  0  0  0  0  0  0  0  0  0  0  0
   16.2655   -7.2431    0.0000 C   0  0  0  0  0  0  0  0  0  0  0  0
   15.5729   -6.0421    0.0000 O   0  0  0  0  0  0  0  0  0  0  0  0
   16.2655   -6.4466    0.0000 C   0  0  0  0  0  0  0  0  0  0  0  0
   15.5729   -7.6435    0.0000 C   0  0  0  0  0  0  0  0  0  0  0  0
   14.8803   -7.2431    0.0000 C   0  0  0  0  0  0  0  0  0  0  0  0
   15.5729   -8.4400    0.0000 C   0  0  0  0  0  0  0  0  0  0  0  0
   14.8803   -8.8445    0.0000 C   0  0  0  0  0  0  0  0  0  0  0  0
   16.9580   -6.0421    0.0000 N   0  0  0  0  0  0  0  0  0  0  0  0
   16.9580   -5.2455    0.0000 C   0  0  0  0  0  0  0  0  0  0  0  0
   17.6506   -4.0445    0.0000 O   0  0  0  0  0  0  0  0  0  0  0  0
   17.6506   -4.8411    0.0000 C   0  0  0  0  0  0  0  0  0  0  0  0
   16.2655   -4.8411    0.0000 C   0  0  0  0  0  0  0  0  0  0  0  0
   15.5729   -5.2455    0.0000 C   0  0  0  0  0  0  0  0  0  0  0  0
   14.8803   -4.8411    0.0000 S   0  0  0  0  0  0  0  0  0  0  0  0
   14.8803   -4.0445    0.0000 C   0  0  0  0  0  0  0  0  0  0  0  0
   19.7325  -10.0361    0.0000 C   0  0  0  0  0  0  0  0  0  0  0  0
   19.7321  -10.8319    0.0000 C   0  0  0  0  0  0  0  0  0  0  0  0
   20.4225  -11.2310    0.0000 C   0  0  0  0  0  0  0  0  0  0  0  0
   21.1146  -10.8284    0.0000 C   0  0  0  0  0  0  0  0  0  0  0  0
   21.1116  -10.0339    0.0000 C   0  0  0  0  0  0  0  0  0  0  0  0
   20.4236  -12.0482    0.0000 O   0  0  0  0  0  0  0  0  0  0  0  0
  4 13  1  0
 16 19  1  0
 22 26  1  0
 29 32  1  0
 35 38  1  0
 41 49  1  0
 52 57  1  0
  2  1  1  6
  2  4  1  0
  4  3  2  0
  2  5  1  0
  5  7  1  0
  6  7  2  0
  7  8  1  0
  8  9  2  0
  9 10  1  0
 10 11  2  0
 11  6  1  0
 10 12  1  0
 14 13  1  1
 14 16  1  0
 16 15  2  0
 14 17  1  0
 17 18  1  0
 20 19  1  1
 20 22  1  0
 22 21  2  0
 20 23  1  0
 23 24  1  6
 23 25  1  0
 26 27  1  0
 27 29  1  0
 29 28  2  0
 27 30  1  6
 30 31  1  0
 33 32  1  1
 33 35  1  0
 35 34  2  0
 33 36  1  0
 36 37  1  0
 39 38  1  1
 39 41  1  0
 41 40  2  0
 39 42  1  0
 42 44  1  0
 43 44  2  0
 44 45  1  0
 45 46  2  0
 46 47  1  0
 47 48  2  0
 48 43  1  0
 50 49  1  1
 50 52  1  0
 52 51  2  0
 50 53  1  0
 53 54  1  6
 53 55  1  0
 55 56  1  0
 58 57  1  1
 58 60  1  0
 60 59  2  0
 58 61  1  0
 61 62  1  0
 62 63  1  0
 63 64  1  0
 60 31  1  0
 37 65  2  0
 65 66  1  0
 66 67  2  0
 67 68  1  0
 68 69  2  0
 69 37  1  0
 67 70  1  0
M  END

> <chembl_id>
CHEMBL4442959

> <chembl_pref_name>
None

$$$$
 
     RDKit          2D

 61 63  0  0  0  0  0  0  0  0999 V2000
   35.0586   -3.5410    0.0000 N   0  0  0  0  0  0  0  0  0  0  0  0
   35.7388   -3.9372    0.0000 C   0  0  0  0  0  0  0  0  0  0  0  0
   36.4232   -5.1176    0.0000 O   0  0  0  0  0  0  0  0  0  0  0  0
   35.7388   -4.7214    0.0000 C   0  0  0  0  0  0  0  0  0  0  0  0
   36.4232   -3.5410    0.0000 C   0  0  0  0  0  0  0  0  0  0  0  0
   35.0586   -5.1176    0.0000 N   0  0  0  0  0  0  0  0  0  0  0  0
   35.0586   -5.9018    0.0000 C   0  0  0  0  0  0  0  0  0  0  0  0
   33.6941   -5.9018    0.0000 O   0  0  0  0  0  0  0  0  0  0  0  0
   34.3784   -6.2980    0.0000 C   0  0  0  0  0  0  0  0  0  0  0  0
   35.7388   -6.2980    0.0000 C   0  0  0  0  0  0  0  0  0  0  0  0
   34.3784   -7.0822    0.0000 N   0  0  0  0  0  0  0  0  0  0  0  0
   33.6941   -7.4825    0.0000 C   0  0  0  0  0  0  0  0  0  0  0  0
   34.3784   -8.6629    0.0000 O   0  0  0  0  0  0  0  0  0  0  0  0
   33.6941   -8.2708    0.0000 C   0  0  0  0  0  0  0  0  0  0  0  0
   33.0057   -7.0822    0.0000 C   0  0  0  0  0  0  0  0  0  0  0  0
   33.0057   -6.2980    0.0000 S   0  0  0  0  0  0  0  0  0  0  0  0
   33.0057   -8.6629    0.0000 N   0  0  0  0  0  0  0  0  0  0  0  0
   33.0057   -9.4471    0.0000 C   0  0  0  0  0  0  0  0  0  0  0  0
   32.3296  -10.6316    0.0000 O   0  0  0  0  0  0  0  0  0  0  0  0
   32.3296   -9.8474    0.0000 C   0  0  0  0  0  0  0  0  0  0  0  0
   33.6941   -9.8474    0.0000 C   0  0  0  0  0  0  0  0  0  0  0  0
   31.6494   -9.4471    0.0000 N   0  0  0  0  0  0  0  0  0  0  0  0
   30.9651   -9.8474    0.0000 C   0  0  0  0  0  0  0  0  0  0  0  0
   29.6005   -9.8474    0.0000 O   0  0  0  0  0  0  0  0  0  0  0  0
   30.2849   -9.4471    0.0000 C   0  0  0  0  0  0  0  0  0  0  0  0
   30.9651  -10.6316    0.0000 C   0  0  0  0  0  0  0  0  0  0  0  0
   30.2849   -8.6629    0.0000 N   0  0  0  0  0  0  0  0  0  0  0  0
   29.6005   -8.2708    0.0000 C   0  0  0  0  0  0  0  0  0  0  0  0
   28.9162   -7.0822    0.0000 O   0  0  0  0  0  0  0  0  0  0  0  0
   29.6005   -7.4825    0.0000 C   0  0  0  0  0  0  0  0  0  0  0  0
   28.9162   -8.6629    0.0000 C   0  0  0  0  0  0  0  0  0  0  0  0
   30.2849   -7.0822    0.0000 N   0  0  0  0  0  0  0  0  0  0  0  0
   30.2849   -6.2980    0.0000 C   0  0  0  0  0  0  0  0  0  0  0  0
   30.9651   -5.1176    0.0000 O   0  0  0  0  0  0  0  0  0  0  0  0
   30.9651   -5.9018    0.0000 C   0  0  0  0  0  0  0  0  0  0  0  0
   29.6005   -5.9018    0.0000 C   0  0  0  0  0  0  0  0  0  0  0  0
   28.2207   -8.2629    0.0000 C   0  0  0  0  0  0  0  0  0  0  0  0
   29.6005   -5.0970    0.0000 C   0  0  0  0  0  0  0  0  0  0  0  0
   35.0633   -2.7279    0.0000 C   0  0  0  0  0  0  0  0  0  0  0  0
   34.3621   -2.3153    0.0000 C   0  0  0  0  0  0  0  0  0  0  0  0
   35.7692   -2.3234    0.0000 O   0  0  0  0  0  0  0  0  0  0  0  0
   34.3668   -1.5022    0.0000 C   0  0  0  0  0  0  0  0  0  0  0  0
   33.6562   -2.7198    0.0000 N   0  0  0  0  0  0  0  0  0  0  0  0
   35.0727   -1.1018    0.0000 C   0  0  0  0  0  0  0  0  0  0  0  0
   35.0774   -0.2888    0.0000 O   0  0  0  0  0  0  0  0  0  0  0  0
   35.7739   -1.5104    0.0000 O   0  0  0  0  0  0  0  0  0  0  0  0
   37.1280   -3.9433    0.0000 O   0  0  0  0  0  0  0  0  0  0  0  0
   36.4447   -5.8976    0.0000 C   0  0  0  0  0  0  0  0  0  0  0  0
   35.7341   -7.1110    0.0000 C   0  0  0  0  0  0  0  0  0  0  0  0
   28.2222   -7.4582    0.0000 C   0  0  0  0  0  0  0  0  0  0  0  0
   27.5275   -7.0542    0.0000 C   0  0  0  0  0  0  0  0  0  0  0  0
   26.8309   -7.4581    0.0000 C   0  0  0  0  0  0  0  0  0  0  0  0
   26.8333   -8.2661    0.0000 C   0  0  0  0  0  0  0  0  0  0  0  0
   27.5286   -8.6624    0.0000 C   0  0  0  0  0  0  0  0  0  0  0  0
   30.2615  -11.0360    0.0000 O   0  0  0  0  0  0  0  0  0  0  0  0
   26.1268   -7.0503    0.0000 O   0  0  0  0  0  0  0  0  0  0  0  0
   30.3000   -4.6963    0.0000 C   0  0  0  0  0  0  0  0  0  0  0  0
   30.3003   -3.8923    0.0000 C   0  0  0  0  0  0  0  0  0  0  0  0
   29.5993   -3.4911    0.0000 C   0  0  0  0  0  0  0  0  0  0  0  0
   28.9005   -3.8958    0.0000 C   0  0  0  0  0  0  0  0  0  0  0  0
   28.9036   -4.6985    0.0000 C   0  0  0  0  0  0  0  0  0  0  0  0
  4  6  1  0
  9 11  1  0
 14 17  1  0
 20 22  1  0
 25 27  1  0
 30 32  1  0
  2  1  1  1
  2  4  1  0
  4  3  2  0
  2  5  1  0
  7  6  1  1
  7  9  1  0
  9  8  2  0
  7 10  1  0
 11 12  1  0
 12 14  1  0
 14 13  2  0
 12 15  1  6
 15 16  1  0
 18 17  1  1
 18 20  1  0
 20 19  2  0
 18 21  1  0
 23 22  1  1
 23 25  1  0
 25 24  2  0
 23 26  1  0
 28 27  1  1
 28 30  1  0
 30 29  2  0
 28 31  1  0
 33 32  1  1
 33 35  1  0
 35 34  2  0
 33 36  1  0
 35 16  1  0
 31 37  1  0
 36 38  1  0
  1 39  1  0
 39 40  1  0
 39 41  2  0
 40 42  1  1
 40 43  1  0
 42 44  1  0
 44 45  2  0
 44 46  1  0
  5 47  1  0
 10 48  1  0
 10 49  1  0
 37 50  2  0
 50 51  1  0
 51 52  2  0
 52 53  1  0
 53 54  2  0
 54 37  1  0
 26 55  1  0
 52 56  1  0
 38 57  2  0
 57 58  1  0
 58 59  2  0
 59 60  1  0
 60 61  2  0
 61 38  1  0
M  END

> <chembl_id>
CHEMBL4589078

> <chembl_pref_name>
None

$$$$
 
     RDKit          2D

 59 60  0  0  0  0  0  0  0  0999 V2000
    6.7381   -6.8388    0.0000 C   0  0  0  0  0  0  0  0  0  0  0  0
    7.4463   -6.4277    0.0000 C   0  0  0  0  0  0  0  0  0  0  0  0
    8.1545   -6.8388    0.0000 N   0  0  0  0  0  0  0  0  0  0  0  0
    7.4463   -5.6096    0.0000 O   0  0  0  0  0  0  0  0  0  0  0  0
    8.8587   -6.4277    0.0000 C   0  0  0  0  0  0  0  0  0  0  0  0
    9.5666   -6.8397    0.0000 C   0  0  0  0  0  0  0  0  0  0  0  0
    8.8525   -5.6097    0.0000 C   0  0  0  0  0  0  0  0  0  0  0  0
    9.5688   -5.2044    0.0000 S   0  0  0  0  0  0  0  0  0  0  0  0
   10.2829   -3.9804    0.0000 C   0  0  0  0  0  0  0  0  0  0  0  0
    9.5694   -4.3875    0.0000 C   0  0  0  0  0  0  0  0  0  0  0  0
   10.9897   -4.3958    0.0000 N   0  0  0  0  0  0  0  0  0  0  0  0
   12.4082   -4.4116    0.0000 C   0  0  0  0  0  0  0  0  0  0  0  0
   11.6994   -3.9901    0.0000 C   0  0  0  0  0  0  0  0  0  0  0  0
   10.2703   -6.4317    0.0000 N   0  0  0  0  0  0  0  0  0  0  0  0
   10.9702   -6.8440    0.0000 C   0  0  0  0  0  0  0  0  0  0  0  0
   11.6791   -6.4396    0.0000 C   0  0  0  0  0  0  0  0  0  0  0  0
   12.3776   -6.8518    0.0000 N   0  0  0  0  0  0  0  0  0  0  0  0
   13.0905   -6.4498    0.0000 C   0  0  0  0  0  0  0  0  0  0  0  0
   13.0963   -5.6352    0.0000 C   0  0  0  0  0  0  0  0  0  0  0  0
   12.3894   -5.2226    0.0000 N   0  0  0  0  0  0  0  0  0  0  0  0
    8.8588   -3.9735    0.0000 O   0  0  0  0  0  0  0  0  0  0  0  0
   11.7074   -3.1721    0.0000 O   0  0  0  0  0  0  0  0  0  0  0  0
   13.8079   -5.2339    0.0000 O   0  0  0  0  0  0  0  0  0  0  0  0
   11.6851   -5.6215    0.0000 O   0  0  0  0  0  0  0  0  0  0  0  0
    9.5649   -7.6577    0.0000 O   0  0  0  0  0  0  0  0  0  0  0  0
   13.7912   -6.8668    0.0000 C   0  0  0  0  0  0  0  0  0  0  0  0
   13.7842   -7.6849    0.0000 C   0  0  0  0  0  0  0  0  0  0  0  0
   10.2882   -3.1623    0.0000 C   0  0  0  0  0  0  0  0  0  0  0  0
    9.5826   -2.7508    0.0000 C   0  0  0  0  0  0  0  0  0  0  0  0
   13.1228   -4.0117    0.0000 C   0  0  0  0  0  0  0  0  0  0  0  0
   13.1356   -3.1937    0.0000 C   0  0  0  0  0  0  0  0  0  0  0  0
   13.8501   -2.7978    0.0000 C   0  0  0  0  0  0  0  0  0  0  0  0
   12.4383   -2.7749    0.0000 C   0  0  0  0  0  0  0  0  0  0  0  0
   10.9645   -7.6612    0.0000 C   0  0  0  0  0  0  0  0  0  0  0  0
   10.9849   -5.2130    0.0000 C   0  0  0  0  0  0  0  0  0  0  0  0
    9.5862   -1.9336    0.0000 C   0  0  0  0  0  0  0  0  0  0  0  0
    8.8731   -3.1562    0.0000 C   0  0  0  0  0  0  0  0  0  0  0  0
   13.0703   -8.0867    0.0000 C   0  0  0  0  0  0  0  0  0  0  0  0
   13.0630   -8.9040    0.0000 C   0  0  0  0  0  0  0  0  0  0  0  0
   13.7684   -9.3199    0.0000 C   0  0  0  0  0  0  0  0  0  0  0  0
   14.4828   -8.9125    0.0000 C   0  0  0  0  0  0  0  0  0  0  0  0
   14.4866   -8.0966    0.0000 C   0  0  0  0  0  0  0  0  0  0  0  0
   11.6693   -8.0747    0.0000 C   0  0  0  0  0  0  0  0  0  0  0  0
   11.6636   -8.8919    0.0000 O   0  0  0  0  0  0  0  0  0  0  0  0
   12.3799   -7.6711    0.0000 O   0  0  0  0  0  0  0  0  0  0  0  0
    8.1555   -7.6560    0.0000 C   0  0  0  0  0  0  0  0  0  0  0  0
    6.0294   -6.4318    0.0000 N   0  0  0  0  0  0  0  0  0  0  0  0
    6.7399   -7.6560    0.0000 C   0  0  0  0  0  0  0  0  0  0  0  0
    6.0332   -8.0662    0.0000 C   0  0  0  0  0  0  0  0  0  0  0  0
    6.0350   -8.8834    0.0000 N   0  0  0  0  0  0  0  0  0  0  0  0
    5.3245   -7.6592    0.0000 O   0  0  0  0  0  0  0  0  0  0  0  0
    6.0276   -5.6146    0.0000 C   0  0  0  0  0  0  0  0  0  0  0  0
    5.3190   -5.2076    0.0000 C   0  0  0  0  0  0  0  0  0  0  0  0
    6.7344   -5.2044    0.0000 O   0  0  0  0  0  0  0  0  0  0  0  0
    4.6122   -5.6178    0.0000 N   0  0  0  0  0  0  0  0  0  0  0  0
    5.3171   -4.3904    0.0000 C   0  0  0  0  0  0  0  0  0  0  0  0
    6.0239   -3.9802    0.0000 C   0  0  0  0  0  0  0  0  0  0  0  0
    4.6085   -3.9834    0.0000 C   0  0  0  0  0  0  0  0  0  0  0  0
    6.7325   -4.3872    0.0000 C   0  0  0  0  0  0  0  0  0  0  0  0
  1  2  1  0
  2  3  1  0
  2  4  2  0
  5  3  1  0
  5  6  1  0
  5  7  1  6
  6 14  1  0
  8  7  1  0
  8 10  1  0
 11  9  1  0
  9 10  1  0
 11 13  1  0
 12 20  1  0
 12 13  1  0
 14 15  1  0
 15 16  1  0
 16 17  1  0
 17 18  1  0
 18 19  1  0
 19 20  1  0
 10 21  2  0
 13 22  2  0
 19 23  2  0
 16 24  2  0
  6 25  2  0
 18 26  1  1
 26 27  1  0
  9 28  1  1
 28 29  1  0
 12 30  1  1
 30 31  1  0
 31 32  1  0
 31 33  1  0
 15 34  1  1
 11 35  1  0
 29 36  1  0
 29 37  1  0
 27 38  2  0
 38 39  1  0
 39 40  2  0
 40 41  1  0
 41 42  2  0
 42 27  1  0
 34 43  1  0
 43 44  2  0
 43 45  1  0
  3 46  1  0
  1 47  1  0
  1 48  1  1
 48 49  1  0
 49 50  1  0
 49 51  2  0
 47 52  1  0
 52 53  1  0
 52 54  2  0
 53 55  1  1
 53 56  1  0
 56 57  1  0
 56 58  1  6
 57 59  1  0
M  END

> <chembl_id>
CHEMBL4591737

> <chembl_pref_name>
None

$$$$
 
     RDKit          2D

 36 37  0  0  0  0  0  0  0  0999 V2000
    2.2064  -24.7179    0.0000 C   0  0  0  0  0  0  0  0  0  0  0  0
    2.9146  -24.3069    0.0000 C   0  0  0  0  0  0  0  0  0  0  0  0
    3.6228  -24.7179    0.0000 N   0  0  0  0  0  0  0  0  0  0  0  0
    2.9146  -23.4888    0.0000 O   0  0  0  0  0  0  0  0  0  0  0  0
    4.3270  -24.3069    0.0000 C   0  0  0  0  0  0  0  0  0  0  0  0
    5.0349  -24.7188    0.0000 C   0  0  0  0  0  0  0  0  0  0  0  0
    4.3208  -23.4888    0.0000 C   0  0  0  0  0  0  0  0  0  0  0  0
    5.0371  -23.0836    0.0000 S   0  0  0  0  0  0  0  0  0  0  0  0
    5.7512  -21.8596    0.0000 C   0  0  0  0  0  0  0  0  0  0  0  0
    5.0377  -22.2666    0.0000 C   0  0  0  0  0  0  0  0  0  0  0  0
    6.4581  -22.2750    0.0000 N   0  0  0  0  0  0  0  0  0  0  0  0
    7.8765  -22.2908    0.0000 C   0  0  0  0  0  0  0  0  0  0  0  0
    7.1677  -21.8693    0.0000 C   0  0  0  0  0  0  0  0  0  0  0  0
    5.7386  -24.3108    0.0000 N   0  0  0  0  0  0  0  0  0  0  0  0
    6.4385  -24.7232    0.0000 C   0  0  0  0  0  0  0  0  0  0  0  0
    7.1474  -24.3187    0.0000 C   0  0  0  0  0  0  0  0  0  0  0  0
    7.8459  -24.7309    0.0000 C   0  0  0  0  0  0  0  0  0  0  0  0
    8.5588  -24.3289    0.0000 C   0  0  0  0  0  0  0  0  0  0  0  0
    8.5646  -23.5143    0.0000 C   0  0  0  0  0  0  0  0  0  0  0  0
    7.8577  -23.1017    0.0000 N   0  0  0  0  0  0  0  0  0  0  0  0
    4.3271  -21.8527    0.0000 O   0  0  0  0  0  0  0  0  0  0  0  0
    7.1757  -21.0513    0.0000 O   0  0  0  0  0  0  0  0  0  0  0  0
    9.2762  -23.1131    0.0000 O   0  0  0  0  0  0  0  0  0  0  0  0
    5.0332  -25.5369    0.0000 O   0  0  0  0  0  0  0  0  0  0  0  0
    5.7565  -21.0415    0.0000 C   0  0  0  0  0  0  0  0  0  0  0  0
    5.0509  -20.6299    0.0000 C   0  0  0  0  0  0  0  0  0  0  0  0
    5.0593  -19.8138    0.0000 C   0  0  0  0  0  0  0  0  0  0  0  0
    4.3545  -19.4023    0.0000 C   0  0  0  0  0  0  0  0  0  0  0  0
    3.6406  -19.8083    0.0000 C   0  0  0  0  0  0  0  0  0  0  0  0
    3.6399  -20.6299    0.0000 C   0  0  0  0  0  0  0  0  0  0  0  0
    4.3494  -21.0378    0.0000 C   0  0  0  0  0  0  0  0  0  0  0  0
    8.5911  -21.8909    0.0000 C   0  0  0  0  0  0  0  0  0  0  0  0
    8.6039  -21.0729    0.0000 C   0  0  0  0  0  0  0  0  0  0  0  0
    9.3184  -20.6770    0.0000 C   0  0  0  0  0  0  0  0  0  0  0  0
    7.9066  -20.6540    0.0000 C   0  0  0  0  0  0  0  0  0  0  0  0
    6.4532  -23.0921    0.0000 C   0  0  0  0  0  0  0  0  0  0  0  0
  1  2  1  0
  2  3  1  0
  2  4  2  0
  5  3  1  0
  5  6  1  0
  5  7  1  1
  6 14  1  0
  8  7  1  0
  8 10  1  0
 11  9  1  0
  9 10  1  0
 11 13  1  0
 12 20  1  0
 12 13  1  0
 14 15  1  0
 15 16  1  0
 16 17  1  0
 17 18  1  0
 18 19  1  0
 19 20  1  0
 10 21  2  0
 13 22  2  0
 19 23  2  0
  6 24  2  0
  9 25  1  6
 25 26  1  0
 26 27  2  0
 27 28  1  0
 28 29  2  0
 29 30  1  0
 30 31  2  0
 31 26  1  0
 12 32  1  6
 32 33  1  0
 33 34  1  0
 33 35  1  0
 11 36  1  0
M  END

> <chembl_id>
CHEMBL4514439

> <chembl_pref_name>
None

$$$$

     RDKit          2D

 22 20  0  0  0  0  0  0  0  0999 V2000
   20.6999    0.3750    0.0000 Cl  0  0  0  0  0  0  0  0  0  0  0  0
    3.9000    0.7500    0.0000 C   0  0  0  0  0  0  0  0  0  0  0  0
    5.2000    0.0000    0.0000 C   0  0  0  0  0  0  0  0  0  0  0  0
    6.5000    0.7500    0.0000 C   0  0  0  0  0  0  0  0  0  0  0  0
    7.7999    0.0000    0.0000 C   0  0  0  0  0  0  0  0  0  0  0  0
    5.2000   -1.2000    0.0000 N   0  0  0  0  0  0  0  0  0  0  0  0
    3.9000    1.9500    0.0000 O   0  0  0  0  0  0  0  0  0  0  0  0
    2.6000    0.0000    0.0000 O   0  0  0  0  0  0  0  0  0  0  0  0
    1.3000    0.7500    0.0000 C   0  0  0  0  0  0  0  0  0  0  0  0
    0.2606    0.1503    0.0000 C   0  0  0  0  0  0  0  0  0  0  0  0
    9.0999    0.7500    0.0000 C   0  0  0  0  0  0  0  0  0  0  0  0
   10.3999    0.0000    0.0000 N   0  0  0  0  0  0  0  0  0  0  0  0
    9.0999    1.9500    0.0000 O   0  0  0  0  0  0  0  0  0  0  0  0
   11.6999    0.7500    0.0000 C   0  0  0  0  0  0  0  0  0  0  0  0
   12.9999    0.0000    0.0000 C   0  0  0  0  0  0  0  0  0  0  0  0
   14.2999    0.7500    0.0000 S   0  0  0  0  0  0  0  0  0  0  0  0
   15.5999    0.0000    0.0000 C   0  0  0  0  0  0  0  0  0  0  0  0
   16.8999    0.7500    0.0000 C   0  0  0  0  0  0  0  0  0  0  0  0
   15.5999   -1.2000    0.0000 O   0  0  0  0  0  0  0  0  0  0  0  0
   17.9393    0.1503    0.0000 C   0  0  0  0  0  0  0  0  0  0  0  0
   16.8999    1.9500    0.0000 C   0  0  0  0  0  0  0  0  0  0  0  0
   17.9390    1.3502    0.0000 C   0  0  0  0  0  0  0  0  0  0  0  0
  2  3  1  0
  3  4  1  0
  4  5  1  0
  3  6  1  6
  2  7  2  0
  9 10  1  0
  8  9  1  0
  2  8  1  0
 11 12  1  0
 11 13  2  0
 14 15  1  0
 17 18  1  0
 17 19  2  0
 16 17  1  0
 15 16  1  0
 12 14  1  0
  5 11  1  0
 18 20  1  0
 18 21  1  0
 18 22  1  0
M  END

> <chembl_id>
CHEMBL3763604

> <chembl_pref_name>
None

$$$$

     RDKit          2D

 16 15  0  0  1  0  0  0  0  0999 V2000
    3.1500   -6.8375    0.0000 C   0  0  0  0  0  0  0  0  0  0  0  0
    3.8625   -6.4250    0.0000 N   0  0  0  0  0  0  0  0  0  0  0  0
    5.2875   -6.4250    0.0000 C   0  0  0  0  0  0  0  0  0  0  0  0
    8.8500   -6.8375    0.0000 C   0  0  0  0  0  0  0  0  0  0  0  0
    3.1500   -7.6625    0.0000 O   0  0  0  0  0  0  0  0  0  0  0  0
    5.2875   -5.6000    0.0000 O   0  0  0  0  0  0  0  0  0  0  0  0
    8.8500   -7.6625    0.0000 O   0  0  0  0  0  0  0  0  0  0  0  0
    4.5750   -6.8375    0.0000 C   0  0  0  0  0  0  0  0  0  0  0  0
    2.4292   -6.4250    0.0000 C   0  0  0  0  0  0  0  0  0  0  0  0
    6.0000   -6.8375    0.0000 N   0  0  0  0  0  0  0  0  0  0  0  0
    8.1375   -6.4250    0.0000 S   0  0  0  0  0  0  0  0  0  0  0  0
    1.7167   -6.8375    0.0000 N   0  0  0  0  0  0  0  0  0  0  0  0
    9.5625   -6.4250    0.0000 C   0  0  0  0  0  0  0  0  0  0  0  0
    6.7125   -6.4250    0.0000 C   0  0  0  0  0  0  0  0  0  0  0  0
    7.4250   -6.8375    0.0000 C   0  0  0  0  0  0  0  0  0  0  0  0
    2.4292   -5.6000    0.0000 C   0  0  0  0  0  0  0  0  0  0  0  0
  2  1  1  0
  3  8  1  0
  4 11  1  0
  5  1  2  0
  6  3  2  0
  7  4  2  0
  8  2  1  0
  9  1  1  0
 10  3  1  0
 11 15  1  0
 12  9  1  0
 13  4  1  0
 14 10  1  0
 15 14  1  0
  9 16  1  6
M  END

> <chembl_id>
CHEMBL100683

> <chembl_pref_name>
None

$$$$

     RDKit          2D

 71 74  0  0  0  0  0  0  0  0999 V2000
    7.7461  -30.0603    0.0000 C   0  0  0  0  0  0  0  0  0  0  0  0
    8.4620  -29.6437    0.0000 C   0  0  0  0  0  0  0  0  0  0  0  0
    9.1736  -30.0603    0.0000 N   0  0  0  0  0  0  0  0  0  0  0  0
    8.4619  -28.8187    0.0000 C   0  0  0  0  0  0  0  0  0  0  0  0
    7.7461  -28.4062    0.0000 C   0  0  0  0  0  0  0  0  0  0  0  0
    7.7461  -27.5812    0.0000 S   0  0  0  0  0  0  0  0  0  0  0  0
    7.0302  -27.1687    0.0000 C   0  0  0  0  0  0  0  0  0  0  0  0
    7.0302  -29.6437    0.0000 O   0  0  0  0  0  0  0  0  0  0  0  0
    7.7461  -30.8853    0.0000 S   0  0  0  0  0  0  0  0  0  0  0  0
    7.0302  -31.2978    0.0000 C   0  0  0  0  0  0  0  0  0  0  0  0
    7.0302  -32.1228    0.0000 C   0  0  0  0  0  0  0  0  0  0  0  0
    6.3144  -32.5353    0.0000 N   0  0  0  0  0  0  0  0  0  0  0  0
    7.7461  -32.5353    0.0000 C   0  0  0  0  0  0  0  0  0  0  0  0
    7.7461  -33.3603    0.0000 O   0  0  0  0  0  0  0  0  0  0  0  0
    8.4619  -32.1228    0.0000 N   0  0  0  0  0  0  0  0  0  0  0  0
    9.1736  -32.5353    0.0000 C   0  0  0  0  0  0  0  0  0  0  0  0
    9.8895  -32.1228    0.0000 C   0  0  0  0  0  0  0  0  0  0  0  0
    9.1736  -33.3603    0.0000 C   0  0  0  0  0  0  0  0  0  0  0  0
   10.6012  -32.5353    0.0000 N   0  0  0  0  0  0  0  0  0  0  0  0
    9.8895  -31.2978    0.0000 O   0  0  0  0  0  0  0  0  0  0  0  0
   11.3171  -32.1228    0.0000 C   0  0  0  0  0  0  0  0  0  0  0  0
   12.0329  -32.5353    0.0000 C   0  0  0  0  0  0  0  0  0  0  0  0
   11.3171  -31.2978    0.0000 C   0  0  0  0  0  0  0  0  0  0  0  0
   12.0329  -33.3603    0.0000 C   0  0  0  0  0  0  0  0  0  0  0  0
   11.3141  -33.7709    0.0000 C   0  0  0  0  0  0  0  0  0  0  0  0
   11.3135  -34.5947    0.0000 C   0  0  0  0  0  0  0  0  0  0  0  0
   12.0302  -35.0085    0.0000 C   0  0  0  0  0  0  0  0  0  0  0  0
   12.7455  -34.5893    0.0000 C   0  0  0  0  0  0  0  0  0  0  0  0
   12.7449  -33.7675    0.0000 C   0  0  0  0  0  0  0  0  0  0  0  0
   12.0329  -30.8853    0.0000 O   0  0  0  0  0  0  0  0  0  0  0  0
    9.8895  -29.6437    0.0000 C   0  0  0  0  0  0  0  0  0  0  0  0
   10.6012  -30.0603    0.0000 C   0  0  0  0  0  0  0  0  0  0  0  0
    9.8895  -28.8187    0.0000 O   0  0  0  0  0  0  0  0  0  0  0  0
   11.3171  -29.6437    0.0000 C   0  0  0  0  0  0  0  0  0  0  0  0
   10.5934  -30.8790    0.0000 N   0  0  0  0  0  0  0  0  0  0  0  0
   12.0329  -30.0603    0.0000 C   0  0  0  0  0  0  0  0  0  0  0  0
   11.3171  -28.8187    0.0000 C   0  0  0  0  0  0  0  0  0  0  0  0
   12.0329  -28.4062    0.0000 C   0  0  0  0  0  0  0  0  0  0  0  0
    5.6027  -32.1228    0.0000 C   0  0  0  0  0  0  0  0  0  0  0  0
    4.8868  -32.5353    0.0000 C   0  0  0  0  0  0  0  0  0  0  0  0
    5.6027  -31.2978    0.0000 O   0  0  0  0  0  0  0  0  0  0  0  0
    4.1709  -32.1228    0.0000 N   0  0  0  0  0  0  0  0  0  0  0  0
    4.8868  -33.3603    0.0000 C   0  0  0  0  0  0  0  0  0  0  0  0
    4.1709  -33.7728    0.0000 C   0  0  0  0  0  0  0  0  0  0  0  0
    5.6027  -33.7728    0.0000 O   0  0  0  0  0  0  0  0  0  0  0  0
    3.4592  -32.5353    0.0000 C   0  0  0  0  0  0  0  0  0  0  0  0
    2.7434  -32.1228    0.0000 C   0  0  0  0  0  0  0  0  0  0  0  0
    3.4592  -33.3603    0.0000 O   0  0  0  0  0  0  0  0  0  0  0  0
    2.7434  -31.2978    0.0000 N   0  0  0  0  0  0  0  0  0  0  0  0
    2.0275  -32.5353    0.0000 C   0  0  0  0  0  0  0  0  0  0  0  0
    1.3158  -32.1228    0.0000 O   0  0  0  0  0  0  0  0  0  0  0  0
    2.0275  -30.8853    0.0000 C   0  0  0  0  0  0  0  0  0  0  0  0
    2.0275  -30.0603    0.0000 C   0  0  0  0  0  0  0  0  0  0  0  0
    1.3158  -31.2978    0.0000 O   0  0  0  0  0  0  0  0  0  0  0  0
    2.7434  -29.6437    0.0000 C   0  0  0  0  0  0  0  0  0  0  0  0
    2.7405  -28.8187    0.0000 C   0  0  0  0  0  0  0  0  0  0  0  0
    3.4535  -28.4037    0.0000 O   0  0  0  0  0  0  0  0  0  0  0  0
    3.4506  -27.5787    0.0000 C   0  0  0  0  0  0  0  0  0  0  0  0
    4.1627  -27.1680    0.0000 C   0  0  0  0  0  0  0  0  0  0  0  0
    4.1601  -26.3438    0.0000 C   0  0  0  0  0  0  0  0  0  0  0  0
    3.4437  -25.9330    0.0000 C   0  0  0  0  0  0  0  0  0  0  0  0
    2.7283  -26.3524    0.0000 C   0  0  0  0  0  0  0  0  0  0  0  0
    2.7344  -27.1753    0.0000 C   0  0  0  0  0  0  0  0  0  0  0  0
    3.4397  -25.1080    0.0000 C   0  0  0  0  0  0  0  0  0  0  0  0
    4.1521  -24.6920    0.0000 C   0  0  0  0  0  0  0  0  0  0  0  0
    4.8665  -25.1054    0.0000 C   0  0  0  0  0  0  0  0  0  0  0  0
    5.5785  -24.6902    0.0000 C   0  0  0  0  0  0  0  0  0  0  0  0
    5.5749  -23.8643    0.0000 C   0  0  0  0  0  0  0  0  0  0  0  0
    4.8534  -23.4555    0.0000 C   0  0  0  0  0  0  0  0  0  0  0  0
    4.1444  -23.8731    0.0000 C   0  0  0  0  0  0  0  0  0  0  0  0
   11.4657  -30.5629    0.0000 H   0  0  0  0  0  0  0  0  0  0  0  0
  1  2  1  0
  2  3  1  0
  2  4  1  6
  4  5  1  0
  5  6  1  0
  6  7  1  0
  1  8  2  0
  1  9  1  0
  9 10  1  0
 10 11  1  0
 11 12  1  1
 11 13  1  0
 13 14  2  0
 13 15  1  0
 15 16  1  0
 16 17  1  0
 16 18  1  6
 17 19  1  0
 17 20  2  0
 19 21  1  0
 21 22  1  6
 21 23  1  0
 22 24  1  0
 24 25  2  0
 25 26  1  0
 26 27  2  0
 27 28  1  0
 28 29  2  0
 29 24  1  0
 23 30  2  0
 23 35  1  0
  3 31  1  0
 32 31  1  0
 31 33  2  0
 32 34  1  0
 32 35  1  0
 34 36  1  6
 34 37  1  0
 37 38  1  0
 12 39  1  0
 39 40  1  0
 39 41  2  0
 40 42  1  6
 40 43  1  0
 43 44  1  6
 43 45  1  0
 42 46  1  0
 46 47  1  0
 46 48  2  0
 47 49  1  6
 47 50  1  0
 50 51  1  0
 49 52  1  0
 52 53  1  0
 52 54  2  0
 53 55  1  0
 55 56  1  0
 56 57  1  0
 57 58  1  0
 58 59  2  0
 59 60  1  0
 60 61  2  0
 61 62  1  0
 62 63  2  0
 63 58  1  0
 61 64  1  0
 64 65  1  0
 65 66  2  0
 66 67  1  0
 67 68  2  0
 68 69  1  0
 69 70  2  0
 70 65  1  0
 32 71  1  1
M  END

> <chembl_id>
CHEMBL2337986

> <chembl_pref_name>
None

$$$$
 
     RDKit          2D

 53 55  0  0  0  0  0  0  0  0999 V2000
   13.8240   -3.7721    0.0000 N   0  0  0  0  0  0  0  0  0  0  0  0
   14.5084   -4.1725    0.0000 C   0  0  0  0  0  0  0  0  0  0  0  0
   15.1968   -5.3570    0.0000 O   0  0  0  0  0  0  0  0  0  0  0  0
   14.5084   -4.9608    0.0000 C   0  0  0  0  0  0  0  0  0  0  0  0
   15.1968   -3.7721    0.0000 C   0  0  0  0  0  0  0  0  0  0  0  0
   13.8240   -5.3570    0.0000 N   0  0  0  0  0  0  0  0  0  0  0  0
   13.8240   -6.1453    0.0000 C   0  0  0  0  0  0  0  0  0  0  0  0
   12.4554   -6.1453    0.0000 O   0  0  0  0  0  0  0  0  0  0  0  0
   13.1397   -6.5456    0.0000 C   0  0  0  0  0  0  0  0  0  0  0  0
   13.1397   -7.3339    0.0000 N   0  0  0  0  0  0  0  0  0  0  0  0
   12.4554   -7.7343    0.0000 C   0  0  0  0  0  0  0  0  0  0  0  0
   13.1397   -8.9188    0.0000 O   0  0  0  0  0  0  0  0  0  0  0  0
   12.4554   -8.5226    0.0000 C   0  0  0  0  0  0  0  0  0  0  0  0
   11.7628   -7.3339    0.0000 C   0  0  0  0  0  0  0  0  0  0  0  0
   11.7628   -6.5456    0.0000 S   0  0  0  0  0  0  0  0  0  0  0  0
   11.7628   -8.9188    0.0000 N   0  0  0  0  0  0  0  0  0  0  0  0
   11.7628   -9.7071    0.0000 C   0  0  0  0  0  0  0  0  0  0  0  0
   11.0826  -10.8957    0.0000 O   0  0  0  0  0  0  0  0  0  0  0  0
   11.0826  -10.1074    0.0000 C   0  0  0  0  0  0  0  0  0  0  0  0
   12.4554  -10.1074    0.0000 C   0  0  0  0  0  0  0  0  0  0  0  0
   10.3983   -9.7071    0.0000 N   0  0  0  0  0  0  0  0  0  0  0  0
    9.7098  -10.1074    0.0000 C   0  0  0  0  0  0  0  0  0  0  0  0
    8.3412  -10.1074    0.0000 O   0  0  0  0  0  0  0  0  0  0  0  0
    9.0255   -9.7071    0.0000 C   0  0  0  0  0  0  0  0  0  0  0  0
    9.7098  -10.8957    0.0000 C   0  0  0  0  0  0  0  0  0  0  0  0
    9.0255   -8.9188    0.0000 N   0  0  0  0  0  0  0  0  0  0  0  0
    8.3412   -8.5226    0.0000 C   0  0  0  0  0  0  0  0  0  0  0  0
    7.6527   -7.3339    0.0000 O   0  0  0  0  0  0  0  0  0  0  0  0
    8.3412   -7.7343    0.0000 C   0  0  0  0  0  0  0  0  0  0  0  0
    7.6527   -8.9188    0.0000 C   0  0  0  0  0  0  0  0  0  0  0  0
    9.0255   -7.3339    0.0000 N   0  0  0  0  0  0  0  0  0  0  0  0
    9.0255   -6.5456    0.0000 C   0  0  0  0  0  0  0  0  0  0  0  0
    9.7098   -5.3570    0.0000 O   0  0  0  0  0  0  0  0  0  0  0  0
    9.7098   -6.1453    0.0000 C   0  0  0  0  0  0  0  0  0  0  0  0
    8.3412   -6.1453    0.0000 C   0  0  0  0  0  0  0  0  0  0  0  0
   15.1949   -2.9632    0.0000 O   0  0  0  0  0  0  0  0  0  0  0  0
    9.0104  -11.3002    0.0000 O   0  0  0  0  0  0  0  0  0  0  0  0
    6.9532   -8.5145    0.0000 C   0  0  0  0  0  0  0  0  0  0  0  0
    8.3452   -5.3363    0.0000 C   0  0  0  0  0  0  0  0  0  0  0  0
    9.0456   -4.9392    0.0000 C   0  0  0  0  0  0  0  0  0  0  0  0
    9.0500   -4.1311    0.0000 C   0  0  0  0  0  0  0  0  0  0  0  0
    8.3520   -3.7222    0.0000 C   0  0  0  0  0  0  0  0  0  0  0  0
    7.6441   -4.1276    0.0000 C   0  0  0  0  0  0  0  0  0  0  0  0
    7.6431   -4.9344    0.0000 C   0  0  0  0  0  0  0  0  0  0  0  0
   14.5329   -6.5518    0.0000 C   0  0  0  0  0  0  0  0  0  0  0  0
   14.5353   -7.3690    0.0000 C   0  0  0  0  0  0  0  0  0  0  0  0
   15.2394   -6.1412    0.0000 C   0  0  0  0  0  0  0  0  0  0  0  0
    6.9550   -7.7055    0.0000 C   0  0  0  0  0  0  0  0  0  0  0  0
    6.2563   -7.3013    0.0000 C   0  0  0  0  0  0  0  0  0  0  0  0
    5.5554   -7.7050    0.0000 C   0  0  0  0  0  0  0  0  0  0  0  0
    5.5577   -8.5172    0.0000 C   0  0  0  0  0  0  0  0  0  0  0  0
    6.2570   -8.9177    0.0000 C   0  0  0  0  0  0  0  0  0  0  0  0
    4.8473   -7.2971    0.0000 O   0  0  0  0  0  0  0  0  0  0  0  0
  4  6  1  0
  9 10  1  0
 13 16  1  0
 19 21  1  0
 24 26  1  0
 29 31  1  0
  2  1  1  1
  2  4  1  0
  4  3  2  0
  2  5  1  0
  7  6  1  1
  7  9  1  0
  9  8  2  0
 10 11  1  0
 11 13  1  0
 13 12  2  0
 11 14  1  6
 14 15  1  0
 17 16  1  1
 17 19  1  0
 19 18  2  0
 17 20  1  0
 22 21  1  1
 22 24  1  0
 24 23  2  0
 22 25  1  0
 27 26  1  1
 27 29  1  0
 29 28  2  0
 27 30  1  0
 32 31  1  1
 32 34  1  0
 34 33  2  0
 32 35  1  0
 34 15  1  0
  5 36  1  0
 25 37  1  0
 30 38  1  0
 35 39  1  0
 39 40  2  0
 40 41  1  0
 41 42  2  0
 42 43  1  0
 43 44  2  0
 44 39  1  0
  7 45  1  0
 45 46  1  0
 45 47  1  0
 38 48  2  0
 48 49  1  0
 49 50  2  0
 50 51  1  0
 51 52  2  0
 52 38  1  0
 50 53  1  0
M  END

> <chembl_id>
CHEMBL4580814

> <chembl_pref_name>
None

$$$$
 
     RDKit          2D

 23 24  0  0  0  0  0  0  0  0999 V2000
    2.5887   -6.0673    0.0000 C   0  0  0  0  0  0  0  0  0  0  0  0
    1.9254   -6.5474    0.0000 C   0  0  0  0  0  0  0  0  0  0  0  0
    2.5047   -5.2569    0.0000 O   0  0  0  0  0  0  0  0  0  0  0  0
    3.3360   -6.4017    0.0000 S   0  0  0  0  0  0  0  0  0  0  0  0
    5.2525   -5.5129    0.0000 N   0  0  0  0  0  0  0  0  0  0  0  0
    4.7723   -6.1721    0.0000 C   0  0  0  0  0  0  0  0  0  0  0  0
    3.9951   -5.9215    0.0000 C   0  0  0  0  0  0  0  0  0  0  0  0
    3.9951   -5.1043    0.0000 C   0  0  0  0  0  0  0  0  0  0  0  0
    4.7723   -4.8497    0.0000 C   0  0  0  0  0  0  0  0  0  0  0  0
    5.0270   -4.0725    0.0000 O   0  0  0  0  0  0  0  0  0  0  0  0
    5.0270   -6.9493    0.0000 O   0  0  0  0  0  0  0  0  0  0  0  0
    6.0697   -5.5129    0.0000 C   0  0  0  0  0  0  0  0  0  0  0  0
    6.4783   -4.8039    0.0000 C   0  0  0  0  0  0  0  0  0  0  0  0
    7.2955   -4.8039    0.0000 C   0  0  0  0  0  0  0  0  0  0  0  0
    7.7041   -5.5129    0.0000 C   0  0  0  0  0  0  0  0  0  0  0  0
    7.2955   -6.2179    0.0000 C   0  0  0  0  0  0  0  0  0  0  0  0
    6.4783   -6.2179    0.0000 C   0  0  0  0  0  0  0  0  0  0  0  0
    8.5213   -5.5129    0.0000 O   0  0  0  0  0  0  0  0  0  0  0  0
    8.9299   -6.2179    0.0000 C   0  0  0  0  0  0  0  0  0  0  0  0
    7.7041   -4.0948    0.0000 Cl  0  0  0  0  0  0  0  0  0  0  0  0
    8.5225   -6.9263    0.0000 F   0  0  0  0  0  0  0  0  0  0  0  0
    9.7470   -6.2165    0.0000 F   0  0  0  0  0  0  0  0  0  0  0  0
    9.3317   -6.9214    0.0000 F   0  0  0  0  0  0  0  0  0  0  0  0
  1  2  1  0
  1  3  2  0
  1  4  1  0
  5  6  1  0
  6  7  1  0
  7  8  1  0
  8  9  1  0
  5  9  1  0
  9 10  2  0
  6 11  2  0
 12 13  1  0
 13 14  2  0
 14 15  1  0
 15 16  2  0
 16 17  1  0
 12 17  2  0
 18 19  1  0
 15 18  1  0
 14 20  1  0
  5 12  1  0
  4  7  1  0
 19 21  1  0
 19 22  1  0
 19 23  1  0
M  END

> <chembl_id>
CHEMBL4637005

> <chembl_pref_name>
None

$$$$

     RDKit          2D

 14 15  0  0  0  0  0  0  0  0999 V2000
   19.8463  -23.1571    0.0000 C   0  0  0  0  0  0  0  0  0  0  0  0
   19.1792  -22.6750    0.0000 N   0  0  0  0  0  0  0  0  0  0  0  0
   18.5163  -23.1571    0.0000 C   0  0  0  0  0  0  0  0  0  0  0  0
   19.5919  -23.9380    0.0000 C   0  0  0  0  0  0  0  0  0  0  0  0
   18.7706  -23.9380    0.0000 C   0  0  0  0  0  0  0  0  0  0  0  0
   18.5139  -24.7193    0.0000 C   0  0  0  0  0  0  0  0  0  0  0  0
   19.1792  -25.2038    0.0000 C   0  0  0  0  0  0  0  0  0  0  0  0
   19.8444  -24.7193    0.0000 C   0  0  0  0  0  0  0  0  0  0  0  0
   20.4091  -23.9379    0.0000 S   0  0  0  0  0  0  0  0  0  0  0  0
   20.8178  -24.6497    0.0000 C   0  0  0  0  0  0  0  0  0  0  0  0
   21.6391  -24.6497    0.0000 C   0  0  0  0  0  0  0  0  0  0  0  0
   20.4092  -25.3616    0.0000 O   0  0  0  0  0  0  0  0  0  0  0  0
   20.6280  -22.9057    0.0000 O   0  0  0  0  0  0  0  0  0  0  0  0
   17.7349  -22.9049    0.0000 O   0  0  0  0  0  0  0  0  0  0  0  0
  4  1  1  0
  1  2  1  0
  2  3  1  0
  3  5  1  0
  4  5  1  0
  5  6  2  0
  6  7  1  0
  7  8  1  0
  8  4  1  0
  4  9  1  0
  9 10  1  0
 10 11  1  0
 10 12  2  0
  1 13  2  0
  3 14  2  0
M  END

> <chembl_id>
CHEMBL4094138

> <chembl_pref_name>
None

$$$$

     RDKit          2D

 70 74  0  0  0  0  0  0  0  0999 V2000
   25.9526   -9.3432    0.0000 C   0  0  0  0  0  0  0  0  0  0  0  0
   25.9515  -10.1682    0.0000 C   0  0  0  0  0  0  0  0  0  0  0  0
   26.6642  -10.5798    0.0000 C   0  0  0  0  0  0  0  0  0  0  0  0
   27.3786  -10.1677    0.0000 C   0  0  0  0  0  0  0  0  0  0  0  0
   27.3757   -9.3396    0.0000 C   0  0  0  0  0  0  0  0  0  0  0  0
   26.6624   -8.9318    0.0000 C   0  0  0  0  0  0  0  0  0  0  0  0
   20.5695   -6.2522    0.0000 C   0  0  0  0  0  0  0  0  0  0  0  0
   22.7147   -2.5319    0.0000 C   0  0  0  0  0  0  0  0  0  0  0  0
   21.9996   -4.5997    0.0000 O   0  0  0  0  0  0  0  0  0  0  0  0
   20.5695   -4.5997    0.0000 N   0  0  0  0  0  0  0  0  0  0  0  0
   24.8597   -8.7310    0.0000 C   0  0  0  0  0  0  0  0  0  0  0  0
   24.1446   -8.3158    0.0000 N   0  0  0  0  0  0  0  0  0  0  0  0
   24.1446   -0.8794    0.0000 C   0  0  0  0  0  0  0  0  0  0  0  0
   20.5695   -9.5573    0.0000 O   0  0  0  0  0  0  0  0  0  0  0  0
   23.4296   -6.2522    0.0000 C   0  0  0  0  0  0  0  0  0  0  0  0
   19.8503   -3.3582    0.0000 C   0  0  0  0  0  0  0  0  0  0  0  0
   22.7147   -3.3582    0.0000 C   0  0  0  0  0  0  0  0  0  0  0  0
   21.2846   -8.3158    0.0000 C   0  0  0  0  0  0  0  0  0  0  0  0
   24.1446   -3.3582    0.0000 O   0  0  0  0  0  0  0  0  0  0  0  0
   22.7147   -5.0107    0.0000 O   0  0  0  0  0  0  0  0  0  0  0  0
   19.8503   -7.4896    0.0000 C   0  0  0  0  0  0  0  0  0  0  0  0
   23.4296   -2.1209    0.0000 N   0  0  0  0  0  0  0  0  0  0  0  0
   19.1353   -4.5997    0.0000 C   0  0  0  0  0  0  0  0  0  0  0  0
   21.2846   -2.5319    0.0000 S   0  0  0  0  0  0  0  0  0  0  0  0
   24.1446   -5.0107    0.0000 C   0  0  0  0  0  0  0  0  0  0  0  0
   22.7147   -0.8794    0.0000 O   0  0  0  0  0  0  0  0  0  0  0  0
   21.2846   -5.8370    0.0000 C   0  0  0  0  0  0  0  0  0  0  0  0
   23.4296   -7.0785    0.0000 C   0  0  0  0  0  0  0  0  0  0  0  0
   24.8597   -4.5997    0.0000 O   0  0  0  0  0  0  0  0  0  0  0  0
   19.8503   -8.3158    0.0000 C   0  0  0  0  0  0  0  0  0  0  0  0
   19.8503   -9.9684    0.0000 C   0  0  0  0  0  0  0  0  0  0  0  0
   20.5695   -3.7734    0.0000 C   0  0  0  0  0  0  0  0  0  0  0  0
   18.4204   -3.3582    0.0000 C   0  0  0  0  0  0  0  0  0  0  0  0
   23.4296   -1.2946    0.0000 C   0  0  0  0  0  0  0  0  0  0  0  0
   21.9996   -3.7734    0.0000 O   0  0  0  0  0  0  0  0  0  0  0  0
   24.1446   -5.8370    0.0000 N   0  0  0  0  0  0  0  0  0  0  0  0
   24.1446   -7.4896    0.0000 C   0  0  0  0  0  0  0  0  0  0  0  0
   22.3768   -4.1127    0.0000 O   0  0  0  0  0  0  0  0  0  0  0  0
   22.7147   -5.8370    0.0000 C   0  0  0  0  0  0  0  0  0  0  0  0
   19.1353   -3.7734    0.0000 C   0  0  0  0  0  0  0  0  0  0  0  0
   24.7004   -6.8766    0.0000 O   0  0  0  0  0  0  0  0  0  0  0  0
   21.2846   -5.0107    0.0000 C   0  0  0  0  0  0  0  0  0  0  0  0
   20.5695   -8.7310    0.0000 C   0  0  0  0  0  0  0  0  0  0  0  0
   24.8597   -2.9471    0.0000 C   0  0  0  0  0  0  0  0  0  0  0  0
   21.9996   -2.1209    0.0000 C   0  0  0  0  0  0  0  0  0  0  0  0
   23.4296   -3.7734    0.0000 N   0  0  0  0  0  0  0  0  0  0  0  0
   21.9996   -6.2522    0.0000 N   0  0  0  0  0  0  0  0  0  0  0  0
   23.4296   -4.5997    0.0000 C   0  0  0  0  0  0  0  0  0  0  0  0
   21.2846   -3.3582    0.0000 C   0  0  0  0  0  0  0  0  0  0  0  0
   24.1446   -4.1845    0.0000 C   0  0  0  0  0  0  0  0  0  0  0  0
   20.5695   -7.0785    0.0000 C   0  0  0  0  0  0  0  0  0  0  0  0
   21.2846   -7.4896    0.0000 C   0  0  0  0  0  0  0  0  0  0  0  0
   19.1398   -9.5540    0.0000 C   0  0  0  0  0  0  0  0  0  0  0  0
   19.8468  -10.7910    0.0000 C   0  0  0  0  0  0  0  0  0  0  0  0
   19.1352  -10.3736    0.0000 C   0  0  0  0  0  0  0  0  0  0  0  0
   25.5713   -3.3597    0.0000 C   0  0  0  0  0  0  0  0  0  0  0  0
   24.8612   -2.1245    0.0000 C   0  0  0  0  0  0  0  0  0  0  0  0
   25.5663   -2.5301    0.0000 C   0  0  0  0  0  0  0  0  0  0  0  0
   24.8576   -9.5536    0.0000 C   0  0  0  0  0  0  0  0  0  0  0  0
   25.5731   -8.3216    0.0000 C   0  0  0  0  0  0  0  0  0  0  0  0
   24.1433   -9.9585    0.0000 C   0  0  0  0  0  0  0  0  0  0  0  0
   24.1409  -10.7803    0.0000 C   0  0  0  0  0  0  0  0  0  0  0  0
   24.8528  -11.1942    0.0000 C   0  0  0  0  0  0  0  0  0  0  0  0
   25.5685  -10.7803    0.0000 C   0  0  0  0  0  0  0  0  0  0  0  0
   25.5674   -9.9598    0.0000 C   0  0  0  0  0  0  0  0  0  0  0  0
   26.2824   -8.7397    0.0000 C   0  0  0  0  0  0  0  0  0  0  0  0
   26.9953   -8.3309    0.0000 C   0  0  0  0  0  0  0  0  0  0  0  0
   26.9978   -7.5074    0.0000 C   0  0  0  0  0  0  0  0  0  0  0  0
   26.2815   -7.0945    0.0000 C   0  0  0  0  0  0  0  0  0  0  0  0
   25.5715   -7.5057    0.0000 C   0  0  0  0  0  0  0  0  0  0  0  0
  1  2  2  0
  2  3  1  0
  3  4  2  0
  4  5  1  0
  5  6  2  0
  6  1  1  0
  7 51  1  0
  8 22  1  6
 32 16  1  1
 34 26  2  0
 47 39  1  0
 39 20  2  0
 12 11  1  0
 42  9  2  0
 49 24  1  0
 30 21  2  0
 40 33  1  0
  8 17  1  0
 10 42  1  0
 49 32  1  0
 43 14  1  0
 36 25  1  0
 37 12  1  0
 28 37  1  0
 34 13  1  0
 25 29  2  0
 16 40  1  0
 46 48  1  0
 52 18  1  0
 27 47  1  0
 42 27  1  0
 51 21  1  0
 39 15  1  0
 51 52  2  0
 43 30  1  0
 37 41  2  0
 40 23  1  0
 45  8  1  0
 32 10  1  0
 15 28  1  1
 27  7  1  1
 35 49  2  0
 22 34  1  0
 17 46  1  0
 50 19  1  0
 19 44  1  0
 17 38  2  0
 48 50  1  6
 18 43  2  0
 24 45  1  0
 14 31  1  0
 48 25  1  0
 15 36  1  0
 31 53  1  0
 31 54  1  0
 31 55  1  0
 44 56  1  0
 44 57  1  0
 44 58  1  0
 11 59  1  0
 11 60  1  0
 11  1  1  0
 59 61  2  0
 61 62  1  0
 62 63  2  0
 63 64  1  0
 64 65  2  0
 65 59  1  0
 60 66  2  0
 66 67  1  0
 67 68  2  0
 68 69  1  0
 69 70  2  0
 70 60  1  0
M  END

> <chembl_id>
CHEMBL3895677

> <chembl_pref_name>
None

$$$$
 
     RDKit          2D

 41 43  0  0  0  0  0  0  0  0999 V2000
   14.8126   -4.5105    0.0000 C   0  0  0  0  0  0  0  0  0  0  0  0
   14.4059   -5.2146    0.0000 C   0  0  0  0  0  0  0  0  0  0  0  0
   14.8126   -5.9143    0.0000 S   0  0  0  0  0  0  0  0  0  0  0  0
   14.4104   -6.6140    0.0000 C   0  0  0  0  0  0  0  0  0  0  0  0
   14.8126   -7.3182    0.0000 C   0  0  0  0  0  0  0  0  0  0  0  0
   15.6257   -7.3182    0.0000 C   0  0  0  0  0  0  0  0  0  0  0  0
   15.6257   -4.5105    0.0000 N   0  0  0  0  0  0  0  0  0  0  0  0
   16.8509   -3.8093    0.0000 C   0  0  0  0  0  0  0  0  0  0  0  0
   16.0344   -3.8034    0.0000 C   0  0  0  0  0  0  0  0  0  0  0  0
   16.0365   -6.6140    0.0000 N   0  0  0  0  0  0  0  0  0  0  0  0
   17.2525   -4.5207    0.0000 N   0  0  0  0  0  0  0  0  0  0  0  0
   13.5928   -5.2158    0.0000 O   0  0  0  0  0  0  0  0  0  0  0  0
   15.6285   -3.0982    0.0000 O   0  0  0  0  0  0  0  0  0  0  0  0
   18.4796   -3.8385    0.0000 O   0  0  0  0  0  0  0  0  0  0  0  0
   16.0336   -8.0222    0.0000 O   0  0  0  0  0  0  0  0  0  0  0  0
   14.4089   -3.8023    0.0000 C   0  0  0  0  0  0  0  0  0  0  0  0
   13.5958   -3.8015    0.0000 C   0  0  0  0  0  0  0  0  0  0  0  0
   17.2598   -3.1083    0.0000 C   0  0  0  0  0  0  0  0  0  0  0  0
   16.8597   -2.4022    0.0000 C   0  0  0  0  0  0  0  0  0  0  0  0
   14.4072   -8.0212    0.0000 N   0  0  0  0  0  0  0  0  0  0  0  0
   13.5941   -8.0201    0.0000 C   0  0  0  0  0  0  0  0  0  0  0  0
   13.1845   -8.7231    0.0000 C   0  0  0  0  0  0  0  0  0  0  0  0
   13.1865   -7.3159    0.0000 O   0  0  0  0  0  0  0  0  0  0  0  0
   13.1906   -3.0952    0.0000 C   0  0  0  0  0  0  0  0  0  0  0  0
   12.3783   -3.0940    0.0000 C   0  0  0  0  0  0  0  0  0  0  0  0
   11.9723   -3.7977    0.0000 C   0  0  0  0  0  0  0  0  0  0  0  0
   12.3804   -4.5082    0.0000 C   0  0  0  0  0  0  0  0  0  0  0  0
   13.1914   -4.5058    0.0000 C   0  0  0  0  0  0  0  0  0  0  0  0
   16.8496   -6.6156    0.0000 C   0  0  0  0  0  0  0  0  0  0  0  0
   17.2472   -7.3194    0.0000 C   0  0  0  0  0  0  0  0  0  0  0  0
   18.0567   -7.3230    0.0000 C   0  0  0  0  0  0  0  0  0  0  0  0
   18.4683   -6.6208    0.0000 C   0  0  0  0  0  0  0  0  0  0  0  0
   19.3169   -6.4111    0.0000 C   0  0  0  0  0  0  0  0  0  0  0  0
   19.3510   -5.4816    0.0000 C   0  0  0  0  0  0  0  0  0  0  0  0
   18.0558   -4.5373    0.0000 C   0  0  0  0  0  0  0  0  0  0  0  0
   18.4494   -5.2493    0.0000 C   0  0  0  0  0  0  0  0  0  0  0  0
   17.2715   -1.7018    0.0000 C   0  0  0  0  0  0  0  0  0  0  0  0
   16.8722   -0.9962    0.0000 C   0  0  0  0  0  0  0  0  0  0  0  0
   16.0582   -0.9906    0.0000 C   0  0  0  0  0  0  0  0  0  0  0  0
   15.6453   -1.6966    0.0000 C   0  0  0  0  0  0  0  0  0  0  0  0
   16.0512   -2.3993    0.0000 C   0  0  0  0  0  0  0  0  0  0  0  0
  3  2  1  0
  7  1  1  0
  1  2  1  0
  3  4  1  0
  4  5  1  0
  5  6  1  0
  6 10  1  0
  7  9  1  0
 11  8  1  0
  8  9  1  0
 11 35  1  0
  2 12  2  0
  9 13  2  0
 35 14  2  0
  6 15  2  0
  1 16  1  6
 16 17  1  0
  8 18  1  6
 18 19  1  0
  5 20  1  1
 20 21  1  0
 21 22  1  0
 21 23  2  0
 17 24  2  0
 24 25  1  0
 25 26  2  0
 26 27  1  0
 27 28  2  0
 28 17  1  0
 10 29  1  0
 29 30  1  0
 30 31  1  0
 31 32  1  0
 32 33  1  0
 33 34  1  0
 35 36  1  0
 36 34  1  0
 19 37  2  0
 37 38  1  0
 38 39  2  0
 39 40  1  0
 40 41  2  0
 41 19  1  0
M  END

> <chembl_id>
CHEMBL4469416

> <chembl_pref_name>
None

$$$$

     RDKit          2D

 51 53  0  0  0  0  0  0  0  0999 V2000
   -3.9769   -3.5921    0.0000 N   0  0  0  0  0  0  0  0  0  0  0  0
   -3.4249   -2.9791    0.0000 C   0  0  0  0  0  0  0  0  0  0  0  0
   -3.6798   -2.1944    0.0000 N   0  0  0  0  0  0  0  0  0  0  0  0
   -4.4868   -2.0229    0.0000 C   0  0  0  0  0  0  0  0  0  0  0  0
   -5.0388   -2.6360    0.0000 C   0  0  0  0  0  0  0  0  0  0  0  0
   -4.7839   -3.4206    0.0000 C   0  0  0  0  0  0  0  0  0  0  0  0
   -5.3359   -4.0337    0.0000 N   0  0  0  0  0  0  0  0  0  0  0  0
   -5.7925   -2.3004    0.0000 N   0  0  0  0  0  0  0  0  0  0  0  0
   -5.7063   -1.4800    0.0000 C   0  0  0  0  0  0  0  0  0  0  0  0
   -4.8993   -1.3084    0.0000 N   0  0  0  0  0  0  0  0  0  0  0  0
   -4.5637   -0.5548    0.0000 C   0  0  0  0  0  0  0  0  0  0  0  0
   -4.9762    0.1597    0.0000 C   0  0  0  0  0  0  0  0  0  0  0  0
   -5.7967    0.2459    0.0000 O   0  0  0  0  0  0  0  0  0  0  0  0
   -4.4242    0.7728    0.0000 C   0  0  0  0  0  0  0  0  0  0  0  0
   -4.5957    1.5798    0.0000 O   0  0  0  0  0  0  0  0  0  0  0  0
   -3.9826    2.1318    0.0000 P   0  0  0  0  0  0  0  0  0  0  0  0
   -3.4306    1.5187    0.0000 O   0  0  0  0  0  0  0  0  0  0  0  0
   -4.5347    2.7449    0.0000 O   0  0  0  0  0  0  0  0  0  0  0  0
   -3.3695    2.6838    0.0000 O   0  0  0  0  0  0  0  0  0  0  0  0
   -3.6705    0.4373    0.0000 C   0  0  0  0  0  0  0  0  0  0  0  0
   -3.7568   -0.3832    0.0000 O   0  0  0  0  0  0  0  0  0  0  0  0
   -2.9561    0.8498    0.0000 C   0  0  0  0  0  0  0  0  0  0  0  0
   -2.2416    0.4373    0.0000 O   0  0  0  0  0  0  0  0  0  0  0  0
   -1.5271    0.8498    0.0000 P   0  0  0  0  0  0  0  0  0  0  0  0
   -1.1146    0.1353    0.0000 O   0  0  0  0  0  0  0  0  0  0  0  0
   -1.9396    1.5642    0.0000 O   0  0  0  0  0  0  0  0  0  0  0  0
   -0.8126    1.2623    0.0000 O   0  0  0  0  0  0  0  0  0  0  0  0
   -0.0982    0.8498    0.0000 P   0  0  0  0  0  0  0  0  0  0  0  0
   -0.5107    0.1353    0.0000 O   0  0  0  0  0  0  0  0  0  0  0  0
    0.3143    1.5642    0.0000 O   0  0  0  0  0  0  0  0  0  0  0  0
    0.6163    0.4373    0.0000 O   0  0  0  0  0  0  0  0  0  0  0  0
    2.0452    0.4373    0.0000 C   0  0  0  0  0  0  0  0  0  0  0  0
    1.3308    0.8498    0.0000 C   0  0  0  0  0  0  0  0  0  0  0  0
    1.6327   -0.2772    0.0000 C   0  0  0  0  0  0  0  0  0  0  0  0
    2.4577    1.1517    0.0000 C   0  0  0  0  0  0  0  0  0  0  0  0
    2.7597    0.0248    0.0000 C   0  0  0  0  0  0  0  0  0  0  0  0
    2.7597   -0.8002    0.0000 O   0  0  0  0  0  0  0  0  0  0  0  0
    3.4742    0.4373    0.0000 C   0  0  0  0  0  0  0  0  0  0  0  0
    3.4742    1.2623    0.0000 O   0  0  0  0  0  0  0  0  0  0  0  0
    4.1887    0.0248    0.0000 N   0  0  0  0  0  0  0  0  0  0  0  0
    4.9031    0.4373    0.0000 C   0  0  0  0  0  0  0  0  0  0  0  0
    5.6176    0.0248    0.0000 C   0  0  0  0  0  0  0  0  0  0  0  0
    6.3321    0.4373    0.0000 C   0  0  0  0  0  0  0  0  0  0  0  0
    6.3321    1.2623    0.0000 O   0  0  0  0  0  0  0  0  0  0  0  0
    7.0465    0.0248    0.0000 N   0  0  0  0  0  0  0  0  0  0  0  0
    7.7610    0.4373    0.0000 C   0  0  0  0  0  0  0  0  0  0  0  0
    8.4755    0.0248    0.0000 C   0  0  0  0  0  0  0  0  0  0  0  0
    9.1900    0.4373    0.0000 S   0  0  0  0  0  0  0  0  0  0  0  0
    9.9044    0.0248    0.0000 C   0  0  0  0  0  0  0  0  0  0  0  0
   10.6189    0.4373    0.0000 O   0  0  0  0  0  0  0  0  0  0  0  0
    9.9044   -0.8002    0.0000 C   0  0  0  0  0  0  0  0  0  0  0  0
  2  1  1  0
  6  1  2  0
  2  3  2  0
  4  3  1  0
  4  5  2  0
  4 10  1  0
  5  6  1  0
  5  8  1  0
  6  7  1  0
  9  8  2  0
  9 10  1  0
 11 10  1  1
 11 12  1  0
 11 21  1  0
 12 13  1  6
 12 14  1  0
 14 15  1  6
 14 20  1  0
 15 16  1  0
 17 16  2  0
 18 16  1  0
 19 16  1  0
 20 21  1  0
 20 22  1  1
 22 23  1  0
 24 23  1  0
 25 24  2  0
 24 26  1  0
 27 24  1  0
 28 27  1  0
 29 28  2  0
 28 30  1  0
 31 28  1  0
 33 31  1  0
 32 33  1  0
 32 34  1  0
 32 35  1  0
 36 32  1  0
 36 37  1  6
 38 36  1  0
 38 39  2  0
 38 40  1  0
 41 40  1  0
 42 41  1  0
 43 42  1  0
 43 44  2  0
 43 45  1  0
 46 45  1  0
 47 46  1  0
 47 48  1  0
 49 48  1  0
 49 50  2  0
 49 51  1  0
M  END

> <chembl_id>
CHEMBL1230809

> <chembl_pref_name>
None

$$$$

     RDKit          2D

 27 27  0  0  1  0  0  0  0  0999 V2000
    1.5750   -0.9625    0.0000 C   0  0  0  0  0  0  0  0  0  0  0  0
    2.2917   -0.5500    0.0000 C   0  0  0  0  0  0  0  0  0  0  0  0
    0.8625   -3.0250    0.0000 C   0  0  0  0  0  0  0  0  0  0  0  0
    0.8625   -0.5500    0.0000 N   0  0  0  0  0  0  0  0  0  0  0  0
    5.8625   -0.9625    0.0000 C   0  0  0  0  0  0  0  0  0  0  0  0
    0.8625   -2.2000    0.0000 S   0  0  0  0  0  0  0  0  0  0  0  0
    0.1500   -0.9625    0.0000 C   0  0  0  0  0  0  0  0  0  0  0  0
    1.5750   -1.7875    0.0000 C   0  0  0  0  0  0  0  0  0  0  0  0
    2.2917    0.2750    0.0000 O   0  0  0  0  0  0  0  0  0  0  0  0
    0.1500   -3.4375    0.0000 O   0  0  0  0  0  0  0  0  0  0  0  0
    5.8625   -1.7875    0.0000 O   0  0  0  0  0  0  0  0  0  0  0  0
    1.5750   -3.4375    0.0000 C   0  0  0  0  0  0  0  0  0  0  0  0
    0.1500   -1.7875    0.0000 O   0  0  0  0  0  0  0  0  0  0  0  0
    3.0042   -0.9625    0.0000 N   0  0  0  0  0  0  0  0  0  0  0  0
    5.1500   -0.5500    0.0000 S   0  0  0  0  0  0  0  0  0  0  0  0
    6.5792   -0.5500    0.0000 C   0  0  0  0  0  0  0  0  0  0  0  0
   -0.5708   -0.5500    0.0000 C   0  0  0  0  0  0  0  0  0  0  0  0
    3.7167   -0.5500    0.0000 C   0  0  0  0  0  0  0  0  0  0  0  0
    1.5750   -4.2542    0.0000 C   0  0  0  0  0  0  0  0  0  0  0  0
    2.2875   -3.0250    0.0000 C   0  0  0  0  0  0  0  0  0  0  0  0
    4.4292   -0.9625    0.0000 C   0  0  0  0  0  0  0  0  0  0  0  0
    6.5792    0.2750    0.0000 C   0  0  0  0  0  0  0  0  0  0  0  0
    7.2917   -0.9625    0.0000 C   0  0  0  0  0  0  0  0  0  0  0  0
    3.0000   -3.4292    0.0000 C   0  0  0  0  0  0  0  0  0  0  0  0
    2.2875   -4.6750    0.0000 C   0  0  0  0  0  0  0  0  0  0  0  0
    3.0042   -4.2542    0.0000 C   0  0  0  0  0  0  0  0  0  0  0  0
    0.8542   -1.3667    0.0000 H   0  0  0  0  0  0  0  0  0  0  0  0
  2  1  1  0
  3  6  1  0
  1  4  1  6
  5 15  1  0
  6  8  1  0
  7  4  1  0
  8  1  1  0
  9  2  2  0
 10  3  2  0
 11  5  2  0
 12  3  1  0
 13  7  2  0
 14  2  1  0
 15 21  1  0
 16  5  1  0
 17  7  1  0
 18 14  1  0
 19 12  2  0
 20 12  1  0
 21 18  1  0
 22 16  1  0
 23 16  1  0
 24 20  2  0
 25 19  1  0
 26 24  1  0
  1 27  1  1
 25 26  2  0
M  END

> <chembl_id>
CHEMBL51881

> <chembl_pref_name>
None

$$$$

     RDKit          2D

 21 23  0  0  0  0  0  0  0  0999 V2000
    3.4282  -17.6473    0.0000 C   0  0  0  0  0  0  0  0  0  0  0  0
    2.7611  -17.1651    0.0000 N   0  0  0  0  0  0  0  0  0  0  0  0
    2.1023  -17.6473    0.0000 C   0  0  0  0  0  0  0  0  0  0  0  0
    3.1738  -18.4281    0.0000 C   0  0  0  0  0  0  0  0  0  0  0  0
    2.3525  -18.4281    0.0000 C   0  0  0  0  0  0  0  0  0  0  0  0
    2.0999  -19.2094    0.0000 C   0  0  0  0  0  0  0  0  0  0  0  0
    2.7611  -19.6940    0.0000 C   0  0  0  0  0  0  0  0  0  0  0  0
    3.4263  -19.2094    0.0000 C   0  0  0  0  0  0  0  0  0  0  0  0
    1.5271  -18.4239    0.0000 H   0  0  0  0  0  0  0  0  0  0  0  0
    3.9910  -18.4281    0.0000 S   0  0  0  0  0  0  0  0  0  0  0  0
    4.3997  -19.1399    0.0000 C   0  0  0  0  0  0  0  0  0  0  0  0
    5.2210  -19.1399    0.0000 C   0  0  0  0  0  0  0  0  0  0  0  0
    3.9911  -19.8517    0.0000 O   0  0  0  0  0  0  0  0  0  0  0  0
    4.2098  -17.3958    0.0000 O   0  0  0  0  0  0  0  0  0  0  0  0
    1.3209  -17.3951    0.0000 O   0  0  0  0  0  0  0  0  0  0  0  0
    5.6337  -18.4280    0.0000 C   0  0  0  0  0  0  0  0  0  0  0  0
    6.4520  -18.4307    0.0000 C   0  0  0  0  0  0  0  0  0  0  0  0
    6.8605  -17.7197    0.0000 C   0  0  0  0  0  0  0  0  0  0  0  0
    6.4518  -17.0069    0.0000 C   0  0  0  0  0  0  0  0  0  0  0  0
    5.6263  -17.0096    0.0000 C   0  0  0  0  0  0  0  0  0  0  0  0
    5.2173  -17.7212    0.0000 C   0  0  0  0  0  0  0  0  0  0  0  0
  4  1  1  0
  1  2  1  0
  2  3  1  0
  3  5  1  0
  4  5  1  0
  5  6  1  0
  6  7  1  0
  7  8  1  0
  8  4  1  0
  5  9  1  6
  4 10  1  6
 10 11  1  0
 11 12  1  0
 11 13  2  0
  1 14  2  0
  3 15  2  0
 12 16  1  0
 16 17  2  0
 17 18  1  0
 18 19  2  0
 19 20  1  0
 20 21  2  0
 21 16  1  0
M  END

> <chembl_id>
CHEMBL4089865

> <chembl_pref_name>
None

$$$$

     RDKit          2D

 16 17  0  0  0  0  0  0  0  0999 V2000
   17.1471   -7.2714    0.0000 C   0  0  0  0  0  0  0  0  0  0  0  0
   16.4841   -6.7893    0.0000 N   0  0  0  0  0  0  0  0  0  0  0  0
   15.8254   -7.2714    0.0000 C   0  0  0  0  0  0  0  0  0  0  0  0
   16.8927   -8.0481    0.0000 C   0  0  0  0  0  0  0  0  0  0  0  0
   16.0755   -8.0481    0.0000 C   0  0  0  0  0  0  0  0  0  0  0  0
   15.8230   -8.8253    0.0000 C   0  0  0  0  0  0  0  0  0  0  0  0
   16.4841   -9.3057    0.0000 C   0  0  0  0  0  0  0  0  0  0  0  0
   17.1452   -8.8253    0.0000 C   0  0  0  0  0  0  0  0  0  0  0  0
   15.0457   -9.0778    0.0000 O   0  0  0  0  0  0  0  0  0  0  0  0
   15.2542   -8.0440    0.0000 H   0  0  0  0  0  0  0  0  0  0  0  0
   17.7058   -8.0481    0.0000 S   0  0  0  0  0  0  0  0  0  0  0  0
   18.1144   -8.7558    0.0000 C   0  0  0  0  0  0  0  0  0  0  0  0
   18.9316   -8.7558    0.0000 C   0  0  0  0  0  0  0  0  0  0  0  0
   17.7059   -9.4635    0.0000 O   0  0  0  0  0  0  0  0  0  0  0  0
   17.9246   -7.0200    0.0000 O   0  0  0  0  0  0  0  0  0  0  0  0
   15.0481   -7.0192    0.0000 O   0  0  0  0  0  0  0  0  0  0  0  0
  4  1  1  0
  1  2  1  0
  2  3  1  0
  3  5  1  0
  4  5  1  0
  5  6  1  0
  6  7  1  0
  7  8  1  0
  8  4  1  0
  6  9  1  6
  5 10  1  1
  4 11  1  1
 11 12  1  0
 12 13  1  0
 12 14  2  0
  1 15  2  0
  3 16  2  0
M  END

> <chembl_id>
CHEMBL4104592

> <chembl_pref_name>
None

$$$$

     RDKit          2D

 43 45  0  0  0  0  0  0  0  0999 V2000
   13.3307   -4.5117    0.0000 C   0  0  0  0  0  0  0  0  0  0  0  0
   14.0446   -8.2221    0.0000 C   0  0  0  0  0  0  0  0  0  0  0  0
   14.0446   -4.0972    0.0000 C   0  0  0  0  0  0  0  0  0  0  0  0
   14.0446   -6.5721    0.0000 C   0  0  0  0  0  0  0  0  0  0  0  0
   13.3307   -9.4615    0.0000 C   0  0  0  0  0  0  0  0  0  0  0  0
   16.9043   -5.7471    0.0000 C   0  0  0  0  0  0  0  0  0  0  0  0
   13.3307   -2.0368    0.0000 O   0  0  0  0  0  0  0  0  0  0  0  0
   17.6183   -4.5117    0.0000 N   0  0  0  0  0  0  0  0  0  0  0  0
   15.4766   -4.0972    0.0000 N   0  0  0  0  0  0  0  0  0  0  0  0
   16.9043   -9.0470    0.0000 C   0  0  0  0  0  0  0  0  0  0  0  0
   18.3321   -5.7471    0.0000 C   0  0  0  0  0  0  0  0  0  0  0  0
   13.3307   -6.9866    0.0000 C   0  0  0  0  0  0  0  0  0  0  0  0
   14.0446   -3.2722    0.0000 N   0  0  0  0  0  0  0  0  0  0  0  0
   18.3321   -9.0470    0.0000 C   0  0  0  0  0  0  0  0  0  0  0  0
   16.9043   -3.2722    0.0000 O   0  0  0  0  0  0  0  0  0  0  0  0
   16.9043   -4.0972    0.0000 C   0  0  0  0  0  0  0  0  0  0  0  0
   16.1905   -5.3367    0.0000 C   0  0  0  0  0  0  0  0  0  0  0  0
   14.7585   -4.5117    0.0000 C   0  0  0  0  0  0  0  0  0  0  0  0
   13.3307   -5.3367    0.0000 S   0  0  0  0  0  0  0  0  0  0  0  0
   16.1905   -6.9866    0.0000 C   0  0  0  0  0  0  0  0  0  0  0  0
   14.7585   -5.3367    0.0000 O   0  0  0  0  0  0  0  0  0  0  0  0
   16.0839   -5.8338    0.0000 O   0  0  0  0  0  0  0  0  0  0  0  0
   12.6169   -3.2722    0.0000 C   0  0  0  0  0  0  0  0  0  0  0  0
   13.3307   -2.8617    0.0000 C   0  0  0  0  0  0  0  0  0  0  0  0
   16.1905   -4.5117    0.0000 C   0  0  0  0  0  0  0  0  0  0  0  0
   19.0461   -5.3367    0.0000 O   0  0  0  0  0  0  0  0  0  0  0  0
   16.9043   -8.2221    0.0000 C   0  0  0  0  0  0  0  0  0  0  0  0
   14.0446   -9.0470    0.0000 C   0  0  0  0  0  0  0  0  0  0  0  0
   13.3307   -7.8116    0.0000 C   0  0  0  0  0  0  0  0  0  0  0  0
   15.2459   -5.1783    0.0000 O   0  0  0  0  0  0  0  0  0  0  0  0
   19.0461   -9.4615    0.0000 O   0  0  0  0  0  0  0  0  0  0  0  0
   17.6183   -7.8116    0.0000 C   0  0  0  0  0  0  0  0  0  0  0  0
   12.6169   -9.0470    0.0000 C   0  0  0  0  0  0  0  0  0  0  0  0
   16.1905   -7.8116    0.0000 C   0  0  0  0  0  0  0  0  0  0  0  0
   12.6169   -8.2221    0.0000 C   0  0  0  0  0  0  0  0  0  0  0  0
   18.3321   -8.2221    0.0000 C   0  0  0  0  0  0  0  0  0  0  0  0
   14.7585   -6.9866    0.0000 N   0  0  0  0  0  0  0  0  0  0  0  0
   17.6183   -5.3367    0.0000 C   0  0  0  0  0  0  0  0  0  0  0  0
   14.0446   -5.7471    0.0000 C   0  0  0  0  0  0  0  0  0  0  0  0
   15.4766   -5.7471    0.0000 O   0  0  0  0  0  0  0  0  0  0  0  0
   16.9043   -6.5721    0.0000 N   0  0  0  0  0  0  0  0  0  0  0  0
   17.6183   -9.4615    0.0000 C   0  0  0  0  0  0  0  0  0  0  0  0
   15.4766   -6.5721    0.0000 C   0  0  0  0  0  0  0  0  0  0  0  0
 11 26  1  0
 16 15  2  0
 39 19  1  0
  2 28  1  0
 24 23  1  0
 21 39  2  0
  1  3  1  0
  8 16  1  0
 13 24  1  0
  6 22  2  0
 41  6  1  0
 39  4  1  0
 14 31  1  0
 28  5  2  0
 27 10  1  0
 19  1  1  0
  3 18  1  0
 12 29  1  0
 25 16  1  0
 18 30  2  0
 38 11  1  1
 42 10  2  0
 27 32  2  0
 43 40  2  0
 25 17  1  6
 14 42  1  0
  4 12  1  1
 37 43  1  0
  9 25  1  0
 43 20  1  0
 38  8  1  0
  6 38  1  0
 18  9  1  0
 33 35  2  0
 20 34  1  1
 24  7  2  0
  4 37  1  0
 29 35  1  0
 36 14  2  0
 34 27  1  0
 20 41  1  0
  5 33  1  0
 32 36  1  0
  3 13  1  6
 29  2  2  0
M  END

> <chembl_id>
CHEMBL3956629

> <chembl_pref_name>
None

$$$$

     RDKit          2D

 67 70  0  0  1  0  0  0  0  0999 V2000
    8.7375   -5.1042    0.0000 N   0  0  0  0  0  0  0  0  0  0  0  0
    8.7375   -6.0750    0.0000 C   0  0  0  0  0  0  0  0  0  0  0  0
    9.3042   -4.9375    0.0000 C   0  0  0  0  0  0  0  0  0  0  0  0
    9.3042   -4.3542    0.0000 C   0  0  0  0  0  0  0  0  0  0  0  0
    8.9042   -6.6167    0.0000 C   0  0  0  0  0  0  0  0  0  0  0  0
    6.4042   -7.6292    0.0000 C   0  0  0  0  0  0  0  0  0  0  0  0
    9.5292   -6.6167    0.0000 C   0  0  0  0  0  0  0  0  0  0  0  0
    8.7375   -4.1667    0.0000 N   0  0  0  0  0  0  0  0  0  0  0  0
    8.3917   -4.6292    0.0000 C   0  0  0  0  0  0  0  0  0  0  0  0
    9.2292   -5.7292    0.0000 O   0  0  0  0  0  0  0  0  0  0  0  0
   11.0500   -6.6042    0.0000 P   0  0  0  0  0  0  0  0  0  0  0  0
   11.8375   -7.5542    0.0000 P   0  0  0  0  0  0  0  0  0  0  0  0
   11.4500   -7.0875    0.0000 O   0  0  0  0  0  0  0  0  0  0  0  0
    9.6917   -6.0542    0.0000 C   0  0  0  0  0  0  0  0  0  0  0  0
    6.7042   -8.1542    0.0000 O   0  0  0  0  0  0  0  0  0  0  0  0
    9.6167   -7.6292    0.0000 P   0  0  0  0  0  0  0  0  0  0  0  0
    6.1042   -8.1542    0.0000 C   0  0  0  0  0  0  0  0  0  0  0  0
    6.8292   -7.2000    0.0000 C   0  0  0  0  0  0  0  0  0  0  0  0
    9.7917   -4.0542    0.0000 C   0  0  0  0  0  0  0  0  0  0  0  0
    9.8125   -5.2167    0.0000 N   0  0  0  0  0  0  0  0  0  0  0  0
    9.8542   -7.0875    0.0000 O   0  0  0  0  0  0  0  0  0  0  0  0
   10.2625   -4.3417    0.0000 N   0  0  0  0  0  0  0  0  0  0  0  0
   10.4792   -9.1167    0.0000 C   0  0  0  0  0  0  0  0  0  0  0  0
   11.7125   -9.0500    0.0000 C   0  0  0  0  0  0  0  0  0  0  0  0
   10.2167   -5.8917    0.0000 C   0  0  0  0  0  0  0  0  0  0  0  0
   11.0042   -8.8500    0.0000 C   0  0  0  0  0  0  0  0  0  0  0  0
   10.2625   -4.9167    0.0000 C   0  0  0  0  0  0  0  0  0  0  0  0
    8.3417   -9.1917    0.0000 C   0  0  0  0  0  0  0  0  0  0  0  0
   10.6792   -6.1542    0.0000 O   0  0  0  0  0  0  0  0  0  0  0  0
   12.2792   -8.1000    0.0000 O   0  0  0  0  0  0  0  0  0  0  0  0
   12.2667   -7.1917    0.0000 O   0  0  0  0  0  0  0  0  0  0  0  0
   10.6042   -6.9792    0.0000 O   0  0  0  0  0  0  0  0  0  0  0  0
    9.1292   -7.4042    0.0000 O   0  0  0  0  0  0  0  0  0  0  0  0
   12.2792   -8.7917    0.0000 C   0  0  0  0  0  0  0  0  0  0  0  0
    8.8500   -8.8667    0.0000 C   0  0  0  0  0  0  0  0  0  0  0  0
    6.6667   -6.6167    0.0000 O   0  0  0  0  0  0  0  0  0  0  0  0
   10.4792   -9.7125    0.0000 O   0  0  0  0  0  0  0  0  0  0  0  0
    8.3417   -9.8167    0.0000 O   0  0  0  0  0  0  0  0  0  0  0  0
    8.5792   -7.1042    0.0000 O   0  0  0  0  0  0  0  0  0  0  0  0
    9.8917   -8.8500    0.0000 N   0  0  0  0  0  0  0  0  0  0  0  0
   11.3917   -7.9167    0.0000 O   0  0  0  0  0  0  0  0  0  0  0  0
   11.5167   -6.1917    0.0000 O   0  0  0  0  0  0  0  0  0  0  0  0
    9.3375   -8.2542    0.0000 O   0  0  0  0  0  0  0  0  0  0  0  0
   10.1167   -7.8500    0.0000 O   0  0  0  0  0  0  0  0  0  0  0  0
    7.4125   -7.3500    0.0000 S   0  0  0  0  0  0  0  0  0  0  0  0
    9.7917   -3.4625    0.0000 N   0  0  0  0  0  0  0  0  0  0  0  0
    7.8667   -8.8875    0.0000 N   0  0  0  0  0  0  0  0  0  0  0  0
    5.9750   -7.2000    0.0000 C   0  0  0  0  0  0  0  0  0  0  0  0
    9.3750   -9.1500    0.0000 C   0  0  0  0  0  0  0  0  0  0  0  0
   11.0042   -8.2750    0.0000 O   0  0  0  0  0  0  0  0  0  0  0  0
   11.7000   -9.6167    0.0000 C   0  0  0  0  0  0  0  0  0  0  0  0
   11.7125   -8.4792    0.0000 C   0  0  0  0  0  0  0  0  0  0  0  0
    7.4125   -7.9542    0.0000 C   0  0  0  0  0  0  0  0  0  0  0  0
    7.8667   -8.2875    0.0000 C   0  0  0  0  0  0  0  0  0  0  0  0
    5.3917   -7.3542    0.0000 C   0  0  0  0  0  0  0  0  0  0  0  0
   -0.0583   -5.5750    0.0000 C   0  0  0  0  0  0  0  0  0  0  0  0
    0.3667   -6.0000    0.0000 C   0  0  0  0  0  0  0  0  0  0  0  0
    2.9542   -6.3792    0.0000 C   0  0  0  0  0  0  0  0  0  0  0  0
    2.3750   -6.5375    0.0000 C   0  0  0  0  0  0  0  0  0  0  0  0
    1.9542   -6.1167    0.0000 C   0  0  0  0  0  0  0  0  0  0  0  0
    1.3667   -6.2667    0.0000 C   0  0  0  0  0  0  0  0  0  0  0  0
    0.9500   -5.8417    0.0000 C   0  0  0  0  0  0  0  0  0  0  0  0
    4.9667   -6.9292    0.0000 C   0  0  0  0  0  0  0  0  0  0  0  0
    4.3792   -7.0792    0.0000 C   0  0  0  0  0  0  0  0  0  0  0  0
    3.9667   -6.6542    0.0000 C   0  0  0  0  0  0  0  0  0  0  0  0
    3.3792   -6.8125    0.0000 C   0  0  0  0  0  0  0  0  0  0  0  0
   -0.6375   -5.7292    0.0000 C   0  0  0  0  0  0  0  0  0  0  0  0
  2  1  1  6
  3  1  1  0
  4  3  2  0
  5  2  1  0
  6 18  1  0
  7  5  1  0
  8  9  2  0
  9  1  1  0
 10  2  1  0
 11 29  1  0
 12 13  1  0
 13 11  1  0
 14 10  1  0
  6 15  1  0
 16 21  1  0
  6 17  1  0
 18 45  1  0
 19  4  1  0
 20  3  1  0
  7 21  1  1
 22 27  1  0
 23 26  1  0
 24 34  1  0
 14 25  1  6
 26 24  1  0
 27 20  2  0
 28 35  1  0
 29 25  1  0
 30 12  1  0
 31 12  2  0
 32 11  2  0
 33 16  2  0
 34 30  1  0
 35 49  1  0
 36 18  2  0
 37 23  2  0
 38 28  2  0
  5 39  1  1
 40 23  1  0
 41 12  1  0
 42 11  1  0
 43 16  1  0
 44 16  1  0
 45 53  1  0
 46 19  1  0
 47 28  1  0
  6 48  1  1
 49 40  1  0
 50 26  1  0
 51 24  1  0
 52 24  1  0
 53 54  1  0
 54 47  1  0
 55 48  1  0
 56 57  1  0
 57 62  1  0
 58 66  1  0
 59 58  1  0
 60 59  1  0
 61 60  1  0
 62 61  1  0
 63 55  1  0
 64 63  1  0
 65 64  1  0
 66 65  1  0
 67 56  1  0
  4  8  1  0
  7 14  1  0
 19 22  2  0
 17 15  1  0
M  END

> <chembl_id>
CHEMBL12070

> <chembl_pref_name>
None

$$$$

     RDKit          2D

 13 11  0  0  0  0  0  0  0  0999 V2000
   -0.4875   -8.7167    0.0000 Br  0  0  0  0  0  0  0  0  0  0  0  0
    0.5542   -4.7292    0.0000 C   0  0  0  0  0  0  0  0  0  0  0  0
    4.0792   -5.4667    0.0000 C   0  0  0  0  0  0  0  0  0  0  0  0
   -0.2333   -5.8167    0.0000 N   0  0  0  0  0  0  0  0  0  0  0  0
    0.5542   -3.9042    0.0000 O   0  0  0  0  0  0  0  0  0  0  0  0
   -0.2250   -5.0167    0.0000 C   0  0  0  0  0  0  0  0  0  0  0  0
    4.0042   -6.2917    0.0000 O   0  0  0  0  0  0  0  0  0  0  0  0
    1.2292   -5.2042    0.0000 N   0  0  0  0  0  0  0  0  0  0  0  0
    3.4042   -4.9917    0.0000 S   0  0  0  0  0  0  0  0  0  0  0  0
    4.8292   -5.1167    0.0000 C   0  0  0  0  0  0  0  0  0  0  0  0
    1.9792   -4.8625    0.0000 C   0  0  0  0  0  0  0  0  0  0  0  0
    2.6542   -5.3375    0.0000 C   0  0  0  0  0  0  0  0  0  0  0  0
   -0.9083   -4.5417    0.0000 C   0  0  0  0  0  0  0  0  0  0  0  0
  3  9  1  0
  4  6  1  0
  5  2  2  0
  6  2  1  0
  7  3  2  0
  8  2  1  0
  9 12  1  0
 10  3  1  0
 11  8  1  0
 12 11  1  0
  6 13  1  1
M  END

> <chembl_id>
CHEMBL309120

> <chembl_pref_name>
None

$$$$
 
     RDKit          2D

 65 67  0  0  0  0  0  0  0  0999 V2000
   12.4554   -2.9838    0.0000 N   0  0  0  0  0  0  0  0  0  0  0  0
   12.4554   -3.7721    0.0000 C   0  0  0  0  0  0  0  0  0  0  0  0
   13.1397   -4.9608    0.0000 O   0  0  0  0  0  0  0  0  0  0  0  0
   13.1397   -4.1725    0.0000 C   0  0  0  0  0  0  0  0  0  0  0  0
   13.8240   -3.7721    0.0000 N   0  0  0  0  0  0  0  0  0  0  0  0
   14.5084   -4.1725    0.0000 C   0  0  0  0  0  0  0  0  0  0  0  0
   15.1968   -5.3570    0.0000 O   0  0  0  0  0  0  0  0  0  0  0  0
   14.5084   -4.9608    0.0000 C   0  0  0  0  0  0  0  0  0  0  0  0
   15.1968   -3.7721    0.0000 C   0  0  0  0  0  0  0  0  0  0  0  0
   13.8240   -5.3570    0.0000 N   0  0  0  0  0  0  0  0  0  0  0  0
   13.8240   -6.1453    0.0000 C   0  0  0  0  0  0  0  0  0  0  0  0
   12.4554   -6.1453    0.0000 O   0  0  0  0  0  0  0  0  0  0  0  0
   13.1397   -6.5456    0.0000 C   0  0  0  0  0  0  0  0  0  0  0  0
   13.1397   -7.3339    0.0000 N   0  0  0  0  0  0  0  0  0  0  0  0
   12.4554   -7.7343    0.0000 C   0  0  0  0  0  0  0  0  0  0  0  0
   13.1397   -8.9188    0.0000 O   0  0  0  0  0  0  0  0  0  0  0  0
   12.4554   -8.5226    0.0000 C   0  0  0  0  0  0  0  0  0  0  0  0
   11.7628   -7.3339    0.0000 C   0  0  0  0  0  0  0  0  0  0  0  0
   11.7628   -6.5456    0.0000 S   0  0  0  0  0  0  0  0  0  0  0  0
   11.7628   -8.9188    0.0000 N   0  0  0  0  0  0  0  0  0  0  0  0
   11.7628   -9.7071    0.0000 C   0  0  0  0  0  0  0  0  0  0  0  0
   11.0826  -10.8957    0.0000 O   0  0  0  0  0  0  0  0  0  0  0  0
   11.0826  -10.1074    0.0000 C   0  0  0  0  0  0  0  0  0  0  0  0
   12.4554  -10.1074    0.0000 C   0  0  0  0  0  0  0  0  0  0  0  0
   10.3983   -9.7071    0.0000 N   0  0  0  0  0  0  0  0  0  0  0  0
    9.7098  -10.1074    0.0000 C   0  0  0  0  0  0  0  0  0  0  0  0
    8.3412  -10.1074    0.0000 O   0  0  0  0  0  0  0  0  0  0  0  0
    9.0255   -9.7071    0.0000 C   0  0  0  0  0  0  0  0  0  0  0  0
    9.7098  -10.8957    0.0000 C   0  0  0  0  0  0  0  0  0  0  0  0
    9.0255   -8.9188    0.0000 N   0  0  0  0  0  0  0  0  0  0  0  0
    8.3412   -8.5226    0.0000 C   0  0  0  0  0  0  0  0  0  0  0  0
    7.6527   -7.3339    0.0000 O   0  0  0  0  0  0  0  0  0  0  0  0
    8.3412   -7.7343    0.0000 C   0  0  0  0  0  0  0  0  0  0  0  0
    7.6527   -8.9188    0.0000 C   0  0  0  0  0  0  0  0  0  0  0  0
    9.0255   -7.3339    0.0000 N   0  0  0  0  0  0  0  0  0  0  0  0
    9.0255   -6.5456    0.0000 C   0  0  0  0  0  0  0  0  0  0  0  0
    9.7098   -5.3570    0.0000 O   0  0  0  0  0  0  0  0  0  0  0  0
    9.7098   -6.1453    0.0000 C   0  0  0  0  0  0  0  0  0  0  0  0
    8.3412   -6.1453    0.0000 C   0  0  0  0  0  0  0  0  0  0  0  0
   15.1949   -2.9632    0.0000 O   0  0  0  0  0  0  0  0  0  0  0  0
   11.7518   -2.5793    0.0000 C   0  0  0  0  0  0  0  0  0  0  0  0
   11.7518   -1.7704    0.0000 O   0  0  0  0  0  0  0  0  0  0  0  0
   11.0524   -2.9838    0.0000 C   0  0  0  0  0  0  0  0  0  0  0  0
   10.3529   -2.5793    0.0000 N   0  0  0  0  0  0  0  0  0  0  0  0
   11.7508   -4.1748    0.0000 C   0  0  0  0  0  0  0  0  0  0  0  0
    9.0104  -11.3002    0.0000 O   0  0  0  0  0  0  0  0  0  0  0  0
    6.9532   -8.5145    0.0000 C   0  0  0  0  0  0  0  0  0  0  0  0
    8.3452   -5.3363    0.0000 C   0  0  0  0  0  0  0  0  0  0  0  0
    9.0456   -4.9392    0.0000 C   0  0  0  0  0  0  0  0  0  0  0  0
    9.0500   -4.1311    0.0000 C   0  0  0  0  0  0  0  0  0  0  0  0
    8.3520   -3.7222    0.0000 C   0  0  0  0  0  0  0  0  0  0  0  0
    7.6441   -4.1276    0.0000 C   0  0  0  0  0  0  0  0  0  0  0  0
    7.6431   -4.9344    0.0000 C   0  0  0  0  0  0  0  0  0  0  0  0
   11.7472   -4.9920    0.0000 C   0  0  0  0  0  0  0  0  0  0  0  0
   11.0377   -5.3975    0.0000 O   0  0  0  0  0  0  0  0  0  0  0  0
   12.4531   -5.4037    0.0000 O   0  0  0  0  0  0  0  0  0  0  0  0
   14.5329   -6.5518    0.0000 C   0  0  0  0  0  0  0  0  0  0  0  0
   14.5353   -7.3690    0.0000 C   0  0  0  0  0  0  0  0  0  0  0  0
   15.2394   -6.1412    0.0000 C   0  0  0  0  0  0  0  0  0  0  0  0
    6.9550   -7.7055    0.0000 C   0  0  0  0  0  0  0  0  0  0  0  0
    6.2563   -7.3013    0.0000 C   0  0  0  0  0  0  0  0  0  0  0  0
    5.5554   -7.7050    0.0000 C   0  0  0  0  0  0  0  0  0  0  0  0
    5.5577   -8.5172    0.0000 C   0  0  0  0  0  0  0  0  0  0  0  0
    6.2570   -8.9177    0.0000 C   0  0  0  0  0  0  0  0  0  0  0  0
    4.8473   -7.2971    0.0000 O   0  0  0  0  0  0  0  0  0  0  0  0
  4  5  1  0
  8 10  1  0
 13 14  1  0
 17 20  1  0
 23 25  1  0
 28 30  1  0
 33 35  1  0
  2  1  1  0
  2  4  1  0
  4  3  2  0
  6  5  1  1
  6  8  1  0
  8  7  2  0
  6  9  1  0
 11 10  1  1
 11 13  1  0
 13 12  2  0
 14 15  1  0
 15 17  1  0
 17 16  2  0
 15 18  1  6
 18 19  1  0
 21 20  1  1
 21 23  1  0
 23 22  2  0
 21 24  1  0
 26 25  1  1
 26 28  1  0
 28 27  2  0
 26 29  1  0
 31 30  1  1
 31 33  1  0
 33 32  2  0
 31 34  1  0
 36 35  1  1
 36 38  1  0
 38 37  2  0
 36 39  1  0
 38 19  1  0
  9 40  1  0
  1 41  1  0
 41 42  2  0
 41 43  1  0
 43 44  1  0
  2 45  1  6
 29 46  1  0
 34 47  1  0
 39 48  1  0
 48 49  2  0
 49 50  1  0
 50 51  2  0
 51 52  1  0
 52 53  2  0
 53 48  1  0
 45 54  1  0
 54 55  1  0
 54 56  2  0
 11 57  1  0
 57 58  1  0
 57 59  1  0
 47 60  2  0
 60 61  1  0
 61 62  2  0
 62 63  1  0
 63 64  2  0
 64 47  1  0
 62 65  1  0
M  END

> <chembl_id>
CHEMBL4531514

> <chembl_pref_name>
None

$$$$

     RDKit          2D

 59 61  0  0  1  0  0  0  0  0999 V2000
   -2.9889   -7.8458    0.0000 C   0  0  0  0  0  0  0  0  0  0  0  0
   -2.9901   -8.6732    0.0000 N   0  0  0  0  0  0  0  0  0  0  0  0
   -2.2753   -9.0860    0.0000 C   0  0  0  0  0  0  0  0  0  0  0  0
   -2.2771   -7.4330    0.0000 N   0  0  0  0  0  0  0  0  0  0  0  0
   -1.5617   -7.8422    0.0000 C   0  0  0  0  0  0  0  0  0  0  0  0
   -1.5614   -8.6732    0.0000 C   0  0  0  0  0  0  0  0  0  0  0  0
   -0.7710   -8.9298    0.0000 N   0  0  0  0  0  0  0  0  0  0  0  0
   -0.2826   -8.2573    0.0000 C   0  0  0  0  0  0  0  0  0  0  0  0
   -0.7714   -7.5852    0.0000 N   0  0  0  0  0  0  0  0  0  0  0  0
   -0.5167   -6.8005    0.0000 C   0  0  0  0  0  0  0  0  0  0  0  0
    0.2647   -6.5506    0.0000 O   0  0  0  0  0  0  0  0  0  0  0  0
    0.2645   -5.7256    0.0000 C   0  0  0  0  0  0  0  0  0  0  0  0
   -0.5203   -5.4709    0.0000 C   0  0  0  0  0  0  0  0  0  0  0  0
   -1.0049   -6.1385    0.0000 C   0  0  0  0  0  0  0  0  0  0  0  0
    0.9317   -5.2404    0.0000 C   0  0  0  0  0  0  0  0  0  0  0  0
    1.6855   -5.5757    0.0000 O   0  0  0  0  0  0  0  0  0  0  0  0
   -0.7756   -4.6863    0.0000 O   0  0  0  0  0  0  0  0  0  0  0  0
   -1.8299   -6.1416    0.0000 O   0  0  0  0  0  0  0  0  0  0  0  0
   -0.2238   -4.0730    0.0000 P   0  0  0  0  0  0  0  0  0  0  0  0
    0.3583   -3.4833    0.0000 O   0  0  0  0  0  0  0  0  0  0  0  0
   -0.8242   -3.5072    0.0000 O   0  0  0  0  0  0  0  0  0  0  0  0
    0.3740   -4.6416    0.0000 O   0  0  0  0  0  0  0  0  0  0  0  0
    2.3528   -5.0906    0.0000 P   0  0  0  0  0  0  0  0  0  0  0  0
    3.0625   -4.6708    0.0000 O   0  0  0  0  0  0  0  0  0  0  0  0
    1.8997   -4.4011    0.0000 O   0  0  0  0  0  0  0  0  0  0  0  0
    2.8063   -5.7798    0.0000 O   0  0  0  0  0  0  0  0  0  0  0  0
    3.7813   -5.0758    0.0000 P   0  0  0  0  0  0  0  0  0  0  0  0
    4.4917   -5.4875    0.0000 O   0  0  0  0  0  0  0  0  0  0  0  0
    4.1906   -4.3595    0.0000 O   0  0  0  0  0  0  0  0  0  0  0  0
    3.3754   -5.7941    0.0000 O   0  0  0  0  0  0  0  0  0  0  0  0
    5.2068   -5.0762    0.0000 C   0  0  0  0  0  0  0  0  0  0  0  0
    5.9206   -5.4899    0.0000 C   0  0  0  0  0  0  0  0  0  0  0  0
    6.6292   -5.9000    0.0000 C   0  0  0  0  0  0  0  0  0  0  0  0
    5.5071   -6.2038    0.0000 C   0  0  0  0  0  0  0  0  0  0  0  0
    6.3395   -4.7791    0.0000 C   0  0  0  0  0  0  0  0  0  0  0  0
    6.6282   -6.7250    0.0000 O   0  0  0  0  0  0  0  0  0  0  0  0
    7.3441   -5.4883    0.0000 C   0  0  0  0  0  0  0  0  0  0  0  0
    8.0581   -5.9016    0.0000 N   0  0  0  0  0  0  0  0  0  0  0  0
    7.3450   -4.6633    0.0000 O   0  0  0  0  0  0  0  0  0  0  0  0
    8.7730   -5.4899    0.0000 C   0  0  0  0  0  0  0  0  0  0  0  0
    9.4870   -5.9032    0.0000 C   0  0  0  0  0  0  0  0  0  0  0  0
   10.2020   -5.4915    0.0000 C   0  0  0  0  0  0  0  0  0  0  0  0
   10.9160   -5.9048    0.0000 N   0  0  0  0  0  0  0  0  0  0  0  0
   10.2029   -4.6665    0.0000 O   0  0  0  0  0  0  0  0  0  0  0  0
   11.6309   -5.4931    0.0000 C   0  0  0  0  0  0  0  0  0  0  0  0
   12.3449   -5.9064    0.0000 C   0  0  0  0  0  0  0  0  0  0  0  0
   13.0599   -5.4947    0.0000 S   0  0  0  0  0  0  0  0  0  0  0  0
   -2.2751   -9.9110    0.0000 N   0  0  0  0  0  0  0  0  0  0  0  0
   13.7739   -5.9080    0.0000 C   0  0  0  0  0  0  0  0  0  0  0  0
   14.4888   -5.4963    0.0000 C   0  0  0  0  0  0  0  0  0  0  0  0
   13.7729   -6.7330    0.0000 O   0  0  0  0  0  0  0  0  0  0  0  0
   15.2028   -5.9096    0.0000 C   0  0  0  0  0  0  0  0  0  0  0  0
   15.9177   -5.4979    0.0000 C   0  0  0  0  0  0  0  0  0  0  0  0
   15.2019   -6.7346    0.0000 O   0  0  0  0  0  0  0  0  0  0  0  0
   16.6318   -5.9112    0.0000 C   0  0  0  0  0  0  0  0  0  0  0  0
   17.3467   -5.4995    0.0000 C   0  0  0  0  0  0  0  0  0  0  0  0
   18.0607   -5.9128    0.0000 C   0  0  0  0  0  0  0  0  0  0  0  0
   18.7756   -5.5011    0.0000 C   0  0  0  0  0  0  0  0  0  0  0  0
   14.4897   -4.6713    0.0000 F   0  0  0  0  0  0  0  0  0  0  0  0
 12 13  1  0
 27 29  1  0
 13 14  1  0
 27 30  2  0
 14 10  1  0
 28 31  1  0
  1  2  2  0
 31 32  1  0
 12 15  1  1
 32 33  1  0
  5  4  2  0
 32 34  1  0
 15 16  1  0
 32 35  1  0
  6  7  1  0
 33 36  1  6
 13 17  1  6
 33 37  1  0
  7  8  2  0
 37 38  1  0
 14 18  1  6
 37 39  2  0
  8  9  1  0
 38 40  1  0
 17 19  1  0
 40 41  1  0
  9  5  1  0
 41 42  1  0
 19 20  1  0
 42 43  1  0
  4  1  1  0
 42 44  2  0
 19 21  2  0
 43 45  1  0
 10  9  1  1
 45 46  1  0
 19 22  1  0
 46 47  1  0
 10 11  1  0
  3 48  1  0
 16 23  1  0
 47 49  1  0
  5  6  1  0
 49 50  1  0
 23 24  1  0
 49 51  2  0
 50 52  1  0
 23 25  2  0
 52 53  1  0
  2  3  1  0
 52 54  1  0
 23 26  1  0
 53 55  1  0
  3  6  2  0
 55 56  1  0
 24 27  1  0
 56 57  1  0
 11 12  1  0
 57 58  1  0
 27 28  1  0
 50 59  1  0
M  END

> <chembl_id>
CHEMBL398256

> <chembl_pref_name>
None

$$$$

     RDKit          2D

 18 17  0  0  0  0  0  0  0  0999 V2000
   -4.4293   -0.2416    0.0000 N   0  0  0  0  0  0  0  0  0  0  0  0
   -3.7149    0.1709    0.0000 C   0  0  0  0  0  0  0  0  0  0  0  0
   -3.0004   -0.2416    0.0000 C   0  0  0  0  0  0  0  0  0  0  0  0
   -2.2859    0.1709    0.0000 S   0  0  0  0  0  0  0  0  0  0  0  0
   -5.1438    0.1709    0.0000 C   0  0  0  0  0  0  0  0  0  0  0  0
   -5.8583   -0.2416    0.0000 O   0  0  0  0  0  0  0  0  0  0  0  0
   -5.1438    0.9959    0.0000 C   0  0  0  0  0  0  0  0  0  0  0  0
   -0.8570    0.1709    0.0000 C   0  0  0  0  0  0  0  0  0  0  0  0
   -1.5714   -0.2416    0.0000 C   0  0  0  0  0  0  0  0  0  0  0  0
   -0.1425   -0.2416    0.0000 N   0  0  0  0  0  0  0  0  0  0  0  0
    0.5720    0.1709    0.0000 C   0  0  0  0  0  0  0  0  0  0  0  0
    1.2864   -0.2416    0.0000 O   0  0  0  0  0  0  0  0  0  0  0  0
    0.5720    0.9959    0.0000 O   0  0  0  0  0  0  0  0  0  0  0  0
    2.0009    0.1709    0.0000 C   0  0  0  0  0  0  0  0  0  0  0  0
    2.7154    0.5834    0.0000 C   0  0  0  0  0  0  0  0  0  0  0  0
    2.4134   -0.5435    0.0000 C   0  0  0  0  0  0  0  0  0  0  0  0
    1.5884    0.8854    0.0000 C   0  0  0  0  0  0  0  0  0  0  0  0
   -1.5714   -1.0666    0.0000 O   0  0  0  0  0  0  0  0  0  0  0  0
  8 10  1  0
  3  4  1  0
 10 11  1  0
  5  6  2  0
 11 12  1  0
  5  7  1  0
 11 13  2  0
  1  5  1  0
 12 14  1  0
 14 15  1  0
  1  2  1  0
 14 16  1  0
  8  9  1  0
 14 17  1  0
  9  4  1  0
  2  3  1  0
  9 18  2  0
M  END

> <chembl_id>
CHEMBL490962

> <chembl_pref_name>
None

$$$$

     RDKit          2D

 37 38  0  0  1  0  0  0  0  0999 V2000
   -0.5208   -2.1167    0.0000 N   0  0  0  0  0  0  0  0  0  0  0  0
   -0.9292   -1.5417    0.0000 C   0  0  0  0  0  0  0  0  0  0  0  0
   -0.9375   -2.6875    0.0000 C   0  0  0  0  0  0  0  0  0  0  0  0
   -1.6083   -1.7500    0.0000 C   0  0  0  0  0  0  0  0  0  0  0  0
   -1.6083   -2.4583    0.0000 C   0  0  0  0  0  0  0  0  0  0  0  0
    5.6250   -2.0750    0.0000 C   0  0  0  0  0  0  0  0  0  0  0  0
    2.0458   -1.2208    0.0000 C   0  0  0  0  0  0  0  0  0  0  0  0
    3.1708   -2.0750    0.0000 N   0  0  0  0  0  0  0  0  0  0  0  0
    3.7792   -1.7125    0.0000 C   0  0  0  0  0  0  0  0  0  0  0  0
    5.0083   -1.7167    0.0000 N   0  0  0  0  0  0  0  0  0  0  0  0
    6.2375   -1.7167    0.0000 C   0  0  0  0  0  0  0  0  0  0  0  0
    2.5500   -1.7250    0.0000 C   0  0  0  0  0  0  0  0  0  0  0  0
   -0.9375   -0.8250    0.0000 O   0  0  0  0  0  0  0  0  0  0  0  0
   -0.9458   -3.3917    0.0000 O   0  0  0  0  0  0  0  0  0  0  0  0
    5.6208   -2.7833    0.0000 O   0  0  0  0  0  0  0  0  0  0  0  0
    6.8458   -2.0750    0.0000 C   0  0  0  0  0  0  0  0  0  0  0  0
    1.3375   -1.2208    0.0000 O   0  0  0  0  0  0  0  0  0  0  0  0
    3.7750   -1.0042    0.0000 O   0  0  0  0  0  0  0  0  0  0  0  0
    4.3917   -2.0708    0.0000 C   0  0  0  0  0  0  0  0  0  0  0  0
    0.0958   -1.7500    0.0000 C   0  0  0  0  0  0  0  0  0  0  0  0
    2.2292   -0.5333    0.0000 O   0  0  0  0  0  0  0  0  0  0  0  0
    7.4625   -1.7208    0.0000 C   0  0  0  0  0  0  0  0  0  0  0  0
    6.2333   -1.0125    0.0000 C   0  0  0  0  0  0  0  0  0  0  0  0
    6.8417   -0.6583    0.0000 C   0  0  0  0  0  0  0  0  0  0  0  0
    1.9417   -2.0875    0.0000 C   0  0  0  0  0  0  0  0  0  0  0  0
    7.4625   -1.0125    0.0000 C   0  0  0  0  0  0  0  0  0  0  0  0
    8.0667   -2.0750    0.0000 I   0  0  0  0  0  0  0  0  0  0  0  0
    0.7167   -2.1000    0.0000 C   0  0  0  0  0  0  0  0  0  0  0  0
    1.3250   -1.7417    0.0000 C   0  0  0  0  0  0  0  0  0  0  0  0
    3.0458   -1.2208    0.0000 H   0  0  0  0  0  0  0  0  0  0  0  0
   -2.2250   -1.3958    0.0000 S   0  0  0  0  0  0  0  0  0  0  0  0
   -4.0625   -1.7500    0.0000 N   0  0  0  0  0  0  0  0  0  0  0  0
   -3.4505   -1.3958    0.0000 C   0  0  0  0  0  0  0  0  0  0  0  0
   -2.8343   -1.7500    0.0000 C   0  0  0  0  0  0  0  0  0  0  0  0
   -2.8343   -2.4583    0.0000 O   0  0  0  0  0  0  0  0  0  0  0  0
   -3.4505   -0.6875    0.0000 C   0  0  0  0  0  0  0  0  0  0  0  0
   -2.8343   -0.3333    0.0000 S   0  0  0  0  0  0  0  0  0  0  0  0
  8 12  1  0
  9  8  1  0
 10 19  1  0
 11  6  1  0
 12 25  1  0
 13  2  2  0
 14  3  2  0
 15  6  2  0
 16 11  2  0
 17  7  2  0
 18  9  2  0
 19  9  1  0
 20  1  1  0
 21  7  1  0
 22 16  1  0
 23 11  1  0
 24 23  2  0
 25 29  1  0
 26 24  1  0
 27 22  1  0
 28 20  1  0
 29 28  1  0
 12 30  1  6
  4  5  1  0
 22 26  2  0
  4 31  1  0
  2  1  1  0
  3  1  1  0
  4  2  1  0
  5  3  1  0
  6 10  1  0
 12  7  1  1
 32 33  1  0
 33 34  1  0
 34 35  2  0
 33 36  1  1
 36 37  1  0
 34 31  1  0
M  ISO  1  27 131
M  END

> <chembl_id>
CHEMBL174648

> <chembl_pref_name>
None

$$$$
 
     RDKit          2D

 42 44  0  0  0  0  0  0  0  0999 V2000
   19.3072   -7.1643    0.0000 C   0  0  0  0  0  0  0  0  0  0  0  0
   18.8963   -7.8767    0.0000 C   0  0  0  0  0  0  0  0  0  0  0  0
   19.3072   -8.5805    0.0000 S   0  0  0  0  0  0  0  0  0  0  0  0
   18.9008   -9.2884    0.0000 C   0  0  0  0  0  0  0  0  0  0  0  0
   19.3072  -10.0009    0.0000 C   0  0  0  0  0  0  0  0  0  0  0  0
   20.1326  -10.0009    0.0000 C   0  0  0  0  0  0  0  0  0  0  0  0
   20.1326   -7.1643    0.0000 N   0  0  0  0  0  0  0  0  0  0  0  0
   21.3702   -6.4549    0.0000 C   0  0  0  0  0  0  0  0  0  0  0  0
   20.5454   -6.4489    0.0000 C   0  0  0  0  0  0  0  0  0  0  0  0
   20.5476   -9.2884    0.0000 N   0  0  0  0  0  0  0  0  0  0  0  0
   21.7759   -7.1746    0.0000 N   0  0  0  0  0  0  0  0  0  0  0  0
   18.0750   -7.8778    0.0000 O   0  0  0  0  0  0  0  0  0  0  0  0
   20.1355   -5.7355    0.0000 O   0  0  0  0  0  0  0  0  0  0  0  0
   23.0155   -6.4841    0.0000 O   0  0  0  0  0  0  0  0  0  0  0  0
   20.5446  -10.7090    0.0000 O   0  0  0  0  0  0  0  0  0  0  0  0
   18.8993   -6.4479    0.0000 C   0  0  0  0  0  0  0  0  0  0  0  0
   18.0780   -6.4471    0.0000 C   0  0  0  0  0  0  0  0  0  0  0  0
   21.7832   -5.7456    0.0000 C   0  0  0  0  0  0  0  0  0  0  0  0
   21.3791   -5.0354    0.0000 C   0  0  0  0  0  0  0  0  0  0  0  0
   18.8976  -10.7080    0.0000 N   0  0  0  0  0  0  0  0  0  0  0  0
   18.0763  -10.7069    0.0000 C   0  0  0  0  0  0  0  0  0  0  0  0
   17.6626  -11.4182    0.0000 C   0  0  0  0  0  0  0  0  0  0  0  0
   17.6645   -9.9986    0.0000 O   0  0  0  0  0  0  0  0  0  0  0  0
   17.6686   -5.7325    0.0000 C   0  0  0  0  0  0  0  0  0  0  0  0
   16.8481   -5.7313    0.0000 C   0  0  0  0  0  0  0  0  0  0  0  0
   16.4379   -6.4432    0.0000 C   0  0  0  0  0  0  0  0  0  0  0  0
   16.8502   -7.1620    0.0000 C   0  0  0  0  0  0  0  0  0  0  0  0
   17.6694   -7.1597    0.0000 C   0  0  0  0  0  0  0  0  0  0  0  0
   21.3689   -9.2901    0.0000 C   0  0  0  0  0  0  0  0  0  0  0  0
   21.7949   -4.3268    0.0000 C   0  0  0  0  0  0  0  0  0  0  0  0
   21.3915   -3.6129    0.0000 C   0  0  0  0  0  0  0  0  0  0  0  0
   20.5693   -3.6073    0.0000 C   0  0  0  0  0  0  0  0  0  0  0  0
   20.1523   -4.3215    0.0000 C   0  0  0  0  0  0  0  0  0  0  0  0
   20.5622   -5.0325    0.0000 C   0  0  0  0  0  0  0  0  0  0  0  0
   21.7727  -10.0027    0.0000 C   0  0  0  0  0  0  0  0  0  0  0  0
   22.5895  -10.0033    0.0000 C   0  0  0  0  0  0  0  0  0  0  0  0
   23.0042   -9.2953    0.0000 C   0  0  0  0  0  0  0  0  0  0  0  0
   23.8197   -9.3002    0.0000 C   0  0  0  0  0  0  0  0  0  0  0  0
   24.2356   -8.5930    0.0000 C   0  0  0  0  0  0  0  0  0  0  0  0
   23.8299   -7.8833    0.0000 C   0  0  0  0  0  0  0  0  0  0  0  0
   23.0082   -7.8768    0.0000 C   0  0  0  0  0  0  0  0  0  0  0  0
   22.5987   -7.1589    0.0000 C   0  0  0  0  0  0  0  0  0  0  0  0
  3  2  1  0
  7  1  1  0
  1  2  1  0
  3  4  1  0
  4  5  1  0
  5  6  1  0
  6 10  1  0
  7  9  1  0
 11  8  1  0
  8  9  1  0
 11 42  1  0
  2 12  2  0
  9 13  2  0
 42 14  2  0
  6 15  2  0
  1 16  1  6
 16 17  1  0
  8 18  1  6
 18 19  1  0
  5 20  1  1
 20 21  1  0
 21 22  1  0
 21 23  2  0
 17 24  2  0
 24 25  1  0
 25 26  2  0
 26 27  1  0
 27 28  2  0
 28 17  1  0
 10 29  1  0
 19 30  2  0
 30 31  1  0
 31 32  2  0
 32 33  1  0
 33 34  2  0
 34 19  1  0
 29 35  1  0
 35 36  1  0
 37 36  1  0
 37 38  1  0
 38 39  1  0
 39 40  1  0
 40 41  1  0
 41 42  1  0
M  END

> <chembl_id>
CHEMBL4451523

> <chembl_pref_name>
None

$$$$
 
     RDKit          2D

 55 57  0  0  0  0  0  0  0  0999 V2000
   21.8185   -5.1093    0.0000 N   0  0  0  0  0  0  0  0  0  0  0  0
   22.5028   -5.5097    0.0000 C   0  0  0  0  0  0  0  0  0  0  0  0
   23.1913   -6.6942    0.0000 O   0  0  0  0  0  0  0  0  0  0  0  0
   22.5028   -6.2980    0.0000 C   0  0  0  0  0  0  0  0  0  0  0  0
   23.1913   -5.1093    0.0000 C   0  0  0  0  0  0  0  0  0  0  0  0
   21.8185   -6.6942    0.0000 N   0  0  0  0  0  0  0  0  0  0  0  0
   21.8185   -7.4825    0.0000 C   0  0  0  0  0  0  0  0  0  0  0  0
   20.4498   -7.4825    0.0000 O   0  0  0  0  0  0  0  0  0  0  0  0
   21.1342   -7.8828    0.0000 C   0  0  0  0  0  0  0  0  0  0  0  0
   21.1342   -8.6711    0.0000 N   0  0  0  0  0  0  0  0  0  0  0  0
   20.4498   -9.0715    0.0000 C   0  0  0  0  0  0  0  0  0  0  0  0
   21.1342  -10.2560    0.0000 O   0  0  0  0  0  0  0  0  0  0  0  0
   20.4498   -9.8598    0.0000 C   0  0  0  0  0  0  0  0  0  0  0  0
   19.7572   -8.6711    0.0000 C   0  0  0  0  0  0  0  0  0  0  0  0
   19.7572   -7.8828    0.0000 S   0  0  0  0  0  0  0  0  0  0  0  0
   19.7572  -10.2560    0.0000 N   0  0  0  0  0  0  0  0  0  0  0  0
   19.7572  -11.0443    0.0000 C   0  0  0  0  0  0  0  0  0  0  0  0
   19.0770  -12.2329    0.0000 O   0  0  0  0  0  0  0  0  0  0  0  0
   19.0770  -11.4446    0.0000 C   0  0  0  0  0  0  0  0  0  0  0  0
   20.4498  -11.4446    0.0000 C   0  0  0  0  0  0  0  0  0  0  0  0
   18.3927  -11.0443    0.0000 N   0  0  0  0  0  0  0  0  0  0  0  0
   17.7043  -11.4446    0.0000 C   0  0  0  0  0  0  0  0  0  0  0  0
   16.3356  -11.4446    0.0000 O   0  0  0  0  0  0  0  0  0  0  0  0
   17.0199  -11.0443    0.0000 C   0  0  0  0  0  0  0  0  0  0  0  0
   17.7043  -12.2329    0.0000 C   0  0  0  0  0  0  0  0  0  0  0  0
   17.0199  -10.2560    0.0000 N   0  0  0  0  0  0  0  0  0  0  0  0
   16.3356   -9.8598    0.0000 C   0  0  0  0  0  0  0  0  0  0  0  0
   15.6472   -8.6711    0.0000 O   0  0  0  0  0  0  0  0  0  0  0  0
   16.3356   -9.0715    0.0000 C   0  0  0  0  0  0  0  0  0  0  0  0
   15.6472  -10.2560    0.0000 C   0  0  0  0  0  0  0  0  0  0  0  0
   17.0199   -8.6711    0.0000 N   0  0  0  0  0  0  0  0  0  0  0  0
   17.0199   -7.8828    0.0000 C   0  0  0  0  0  0  0  0  0  0  0  0
   17.7043   -6.6942    0.0000 O   0  0  0  0  0  0  0  0  0  0  0  0
   17.7043   -7.4825    0.0000 C   0  0  0  0  0  0  0  0  0  0  0  0
   16.3356   -7.4825    0.0000 C   0  0  0  0  0  0  0  0  0  0  0  0
   23.1893   -4.3004    0.0000 O   0  0  0  0  0  0  0  0  0  0  0  0
   14.9476   -9.8517    0.0000 C   0  0  0  0  0  0  0  0  0  0  0  0
   16.3397   -6.6736    0.0000 C   0  0  0  0  0  0  0  0  0  0  0  0
   17.0400   -6.2764    0.0000 C   0  0  0  0  0  0  0  0  0  0  0  0
   17.0444   -5.4683    0.0000 C   0  0  0  0  0  0  0  0  0  0  0  0
   16.3465   -5.0595    0.0000 C   0  0  0  0  0  0  0  0  0  0  0  0
   15.6385   -5.4648    0.0000 C   0  0  0  0  0  0  0  0  0  0  0  0
   15.6376   -6.2716    0.0000 C   0  0  0  0  0  0  0  0  0  0  0  0
   22.5274   -7.8891    0.0000 C   0  0  0  0  0  0  0  0  0  0  0  0
   14.9495   -9.0427    0.0000 C   0  0  0  0  0  0  0  0  0  0  0  0
   14.2507   -8.6385    0.0000 C   0  0  0  0  0  0  0  0  0  0  0  0
   13.5499   -9.0422    0.0000 C   0  0  0  0  0  0  0  0  0  0  0  0
   13.5521   -9.8544    0.0000 C   0  0  0  0  0  0  0  0  0  0  0  0
   14.2514  -10.2549    0.0000 C   0  0  0  0  0  0  0  0  0  0  0  0
   12.8418   -8.6343    0.0000 O   0  0  0  0  0  0  0  0  0  0  0  0
   21.8232   -4.2922    0.0000 C   0  0  0  0  0  0  0  0  0  0  0  0
   21.1178   -3.8795    0.0000 C   0  0  0  0  0  0  0  0  0  0  0  0
   22.5332   -3.8876    0.0000 O   0  0  0  0  0  0  0  0  0  0  0  0
   21.1225   -3.0623    0.0000 C   0  0  0  0  0  0  0  0  0  0  0  0
   20.4078   -4.2841    0.0000 N   0  0  0  0  0  0  0  0  0  0  0  0
  4  6  1  0
  9 10  1  0
 13 16  1  0
 19 21  1  0
 24 26  1  0
 29 31  1  0
  2  1  1  1
  2  4  1  0
  4  3  2  0
  2  5  1  0
  7  6  1  1
  7  9  1  0
  9  8  2  0
 10 11  1  0
 11 13  1  0
 13 12  2  0
 11 14  1  6
 14 15  1  0
 17 16  1  1
 17 19  1  0
 19 18  2  0
 17 20  1  0
 22 21  1  1
 22 24  1  0
 24 23  2  0
 22 25  1  0
 27 26  1  1
 27 29  1  0
 29 28  2  0
 27 30  1  0
 32 31  1  1
 32 34  1  0
 34 33  2  0
 32 35  1  0
 34 15  1  0
  5 36  1  0
 30 37  1  0
 35 38  1  0
 38 39  2  0
 39 40  1  0
 40 41  2  0
 41 42  1  0
 42 43  2  0
 43 38  1  0
  7 44  1  0
 37 45  2  0
 45 46  1  0
 46 47  2  0
 47 48  1  0
 48 49  2  0
 49 37  1  0
 47 50  1  0
  1 51  1  0
 51 52  1  0
 51 53  2  0
 52 54  1  1
 52 55  1  0
M  END

> <chembl_id>
CHEMBL4557790

> <chembl_pref_name>
None

$$$$
 
     RDKit          2D

 19 20  0  0  0  0  0  0  0  0999 V2000
    4.2665   -4.2077    0.0000 C   0  0  0  0  0  0  0  0  0  0  0  0
    3.5990   -4.6926    0.0000 C   0  0  0  0  0  0  0  0  0  0  0  0
    4.1802   -3.3872    0.0000 O   0  0  0  0  0  0  0  0  0  0  0  0
    5.0202   -4.5432    0.0000 S   0  0  0  0  0  0  0  0  0  0  0  0
    6.9571   -3.6458    0.0000 N   0  0  0  0  0  0  0  0  0  0  0  0
    6.4722   -4.3133    0.0000 C   0  0  0  0  0  0  0  0  0  0  0  0
    5.6876   -4.0583    0.0000 C   0  0  0  0  0  0  0  0  0  0  0  0
    5.6876   -3.2333    0.0000 C   0  0  0  0  0  0  0  0  0  0  0  0
    6.4722   -2.9784    0.0000 C   0  0  0  0  0  0  0  0  0  0  0  0
    6.7272   -2.1938    0.0000 O   0  0  0  0  0  0  0  0  0  0  0  0
    6.7272   -5.0979    0.0000 O   0  0  0  0  0  0  0  0  0  0  0  0
    7.7821   -3.6458    0.0000 C   0  0  0  0  0  0  0  0  0  0  0  0
    8.1946   -2.9313    0.0000 C   0  0  0  0  0  0  0  0  0  0  0  0
    9.0196   -2.9313    0.0000 C   0  0  0  0  0  0  0  0  0  0  0  0
    9.4321   -3.6458    0.0000 C   0  0  0  0  0  0  0  0  0  0  0  0
    9.0196   -4.3603    0.0000 C   0  0  0  0  0  0  0  0  0  0  0  0
    8.1946   -4.3603    0.0000 C   0  0  0  0  0  0  0  0  0  0  0  0
   10.2571   -3.6458    0.0000 O   0  0  0  0  0  0  0  0  0  0  0  0
   10.6696   -2.9313    0.0000 C   0  0  0  0  0  0  0  0  0  0  0  0
  1  2  1  0
  1  3  2  0
  1  4  1  0
  5  6  1  0
  6  7  1  0
  7  8  1  0
  8  9  1  0
  5  9  1  0
  9 10  2  0
  6 11  2  0
 12 13  1  0
 13 14  2  0
 14 15  1  0
 15 16  2  0
 16 17  1  0
 12 17  2  0
 18 19  1  0
 15 18  1  0
  5 12  1  0
  4  7  1  0
M  END

> <chembl_id>
CHEMBL4639044

> <chembl_pref_name>
None

$$$$

     RDKit          2D

 55 57  0  0  0  0  0  0  0  0999 V2000
    4.1824   -7.1070    0.0000 C   0  0  0  0  0  0  0  0  0  0  0  0
   17.6957   -7.2789    0.0000 C   0  0  0  0  0  0  0  0  0  0  0  0
   19.2631   -5.8547    0.0000 C   0  0  0  0  0  0  0  0  0  0  0  0
   18.6691   -9.3556    0.0000 O   0  0  0  0  0  0  0  0  0  0  0  0
    7.0276   -7.0605    0.0000 C   0  0  0  0  0  0  0  0  0  0  0  0
    4.9127   -8.3285    0.0000 O   0  0  0  0  0  0  0  0  0  0  0  0
    6.3197   -7.4842    0.0000 C   0  0  0  0  0  0  0  0  0  0  0  0
    3.4791   -7.5271    0.0000 C   0  0  0  0  0  0  0  0  0  0  0  0
   16.2723   -7.3115    0.0000 P   0  0  0  0  0  0  0  0  0  0  0  0
    2.0605   -7.5506    0.0000 O   0  0  0  0  0  0  0  0  0  0  0  0
   16.9769   -6.8852    0.0000 O   0  0  0  0  0  0  0  0  0  0  0  0
   17.9544   -8.2966    0.0000 O   0  0  0  0  0  0  0  0  0  0  0  0
   19.3414   -7.9755    0.0000 O   0  0  0  0  0  0  0  0  0  0  0  0
   21.8729   -4.2244    0.0000 N   0  0  0  0  0  0  0  0  0  0  0  0
   19.6889   -6.5518    0.0000 C   0  0  0  0  0  0  0  0  0  0  0  0
   11.2929   -6.9944    0.0000 C   0  0  0  0  0  0  0  0  0  0  0  0
   11.2795   -6.1737    0.0000 O   0  0  0  0  0  0  0  0  0  0  0  0
   13.4303   -7.3660    0.0000 C   0  0  0  0  0  0  0  0  0  0  0  0
   14.8515   -7.3371    0.0000 P   0  0  0  0  0  0  0  0  0  0  0  0
   19.4151   -9.0074    0.0000 O   0  0  0  0  0  0  0  0  0  0  0  0
   12.7133   -6.9711    0.0000 C   0  0  0  0  0  0  0  0  0  0  0  0
   19.5833   -5.0986    0.0000 N   0  0  0  0  0  0  0  0  0  0  0  0
    2.7687   -7.1305    0.0000 C   0  0  0  0  0  0  0  0  0  0  0  0
   19.6954   -3.7796    0.0000 N   0  0  0  0  0  0  0  0  0  0  0  0
   13.1843   -6.3053    0.0000 C   0  0  0  0  0  0  0  0  0  0  0  0
   12.0098   -7.3952    0.0000 C   0  0  0  0  0  0  0  0  0  0  0  0
    9.1649   -7.4376    0.0000 C   0  0  0  0  0  0  0  0  0  0  0  0
    5.6029   -7.0836    0.0000 S   0  0  0  0  0  0  0  0  0  0  0  0
   15.2020   -8.0844    0.0000 O   0  0  0  0  0  0  0  0  0  0  0  0
   14.3803   -8.0122    0.0000 O   0  0  0  0  0  0  0  0  0  0  0  0
   21.0534   -5.3869    0.0000 N   0  0  0  0  0  0  0  0  0  0  0  0
   19.1534   -7.1762    0.0000 C   0  0  0  0  0  0  0  0  0  0  0  0
    9.8683   -7.0175    0.0000 C   0  0  0  0  0  0  0  0  0  0  0  0
   20.5078   -6.6190    0.0000 O   0  0  0  0  0  0  0  0  0  0  0  0
    2.7491   -6.3097    0.0000 O   0  0  0  0  0  0  0  0  0  0  0  0
   16.6227   -8.0588    0.0000 O   0  0  0  0  0  0  0  0  0  0  0  0
   15.5523   -6.9140    0.0000 O   0  0  0  0  0  0  0  0  0  0  0  0
    7.7444   -7.4611    0.0000 N   0  0  0  0  0  0  0  0  0  0  0  0
   10.5855   -7.4142    0.0000 N   0  0  0  0  0  0  0  0  0  0  0  0
   20.4499   -4.0992    0.0000 C   0  0  0  0  0  0  0  0  0  0  0  0
    8.4477   -7.0410    0.0000 C   0  0  0  0  0  0  0  0  0  0  0  0
   19.1571   -4.3981    0.0000 C   0  0  0  0  0  0  0  0  0  0  0  0
   18.3973   -6.8561    0.0000 C   0  0  0  0  0  0  0  0  0  0  0  0
   21.1959   -3.7482    0.0000 C   0  0  0  0  0  0  0  0  0  0  0  0
   20.3804   -4.9153    0.0000 C   0  0  0  0  0  0  0  0  0  0  0  0
   18.4668   -6.0381    0.0000 O   0  0  0  0  0  0  0  0  0  0  0  0
    4.8993   -7.5077    0.0000 C   0  0  0  0  0  0  0  0  0  0  0  0
   21.7913   -5.0436    0.0000 C   0  0  0  0  0  0  0  0  0  0  0  0
   12.0191   -8.2155    0.0000 O   0  0  0  0  0  0  0  0  0  0  0  0
   21.2721   -2.9309    0.0000 N   0  0  0  0  0  0  0  0  0  0  0  0
   14.1322   -6.9390    0.0000 O   0  0  0  0  0  0  0  0  0  0  0  0
   15.8010   -7.9867    0.0000 O   0  0  0  0  0  0  0  0  0  0  0  0
   12.3708   -6.2287    0.0000 C   0  0  0  0  0  0  0  0  0  0  0  0
    8.4343   -6.2203    0.0000 O   0  0  0  0  0  0  0  0  0  0  0  0
   18.7425   -8.5362    0.0000 P   0  0  0  0  0  0  0  0  0  0  0  0
 22 45  1  0
 55 20  1  0
 43  2  1  1
 47  1  1  0
 26 49  1  6
 28 47  1  0
 38  5  1  0
 21 26  1  0
 24 42  2  0
 14 44  1  0
  2 11  1  0
 48 14  2  0
 15  3  1  0
 37 19  1  0
 21 53  1  0
 32 15  1  0
  7 28  1  0
 32 13  1  6
 44 50  1  0
 42 22  1  0
 18 21  1  0
  3 22  1  1
 47  6  2  0
 23 35  2  0
  4 55  1  0
  3 46  1  0
 31 48  1  0
 27 41  1  0
 44 40  2  0
 55 12  2  0
 45 40  1  0
 41 54  2  0
  5  7  1  0
 30 19  1  0
 52  9  2  0
 16 17  2  0
  9 37  1  0
 19 51  1  0
 40 24  1  0
 51 18  1  0
 26 16  1  0
  1  8  1  0
 15 34  1  6
  8 23  1  0
 16 39  1  0
 19 29  2  0
 46 43  1  0
 45 31  2  0
 11  9  1  0
 25 21  1  0
 41 38  1  0
 23 10  1  0
 43 32  1  0
 39 33  1  0
 33 27  1  0
 13 55  1  0
  9 36  1  0
M  END

> <chembl_id>
CHEMBL2338332

> <chembl_pref_name>
succinyl-CoA

$$$$

     RDKit          2D

 68 73  0  0  0  0  0  0  0  0999 V2000
   12.5790   -3.7975    0.0000 C   0  0  0  0  0  0  0  0  0  0  0  0
   18.5675   -6.2421    0.0000 O   0  0  0  0  0  0  0  0  0  0  0  0
    7.5759   -3.2729    0.0000 C   0  0  0  0  0  0  0  0  0  0  0  0
   22.1194   -8.6211    0.0000 C   0  0  0  0  0  0  0  0  0  0  0  0
   14.0072   -3.8441    0.0000 N   0  0  0  0  0  0  0  0  0  0  0  0
   17.5899   -3.5455    0.0000 O   0  0  0  0  0  0  0  0  0  0  0  0
   19.8108   -5.5376    0.0000 O   0  0  0  0  0  0  0  0  0  0  0  0
   20.8587   -6.9975    0.0000 O   0  0  0  0  0  0  0  0  0  0  0  0
    9.7224   -3.7043    0.0000 C   0  0  0  0  0  0  0  0  0  0  0  0
   15.4355   -3.8907    0.0000 C   0  0  0  0  0  0  0  0  0  0  0  0
   22.9029   -8.8789    0.0000 N   0  0  0  0  0  0  0  0  0  0  0  0
    8.3008   -4.5063    0.0000 O   0  0  0  0  0  0  0  0  0  0  0  0
   23.3470   -7.5330    0.0000 C   0  0  0  0  0  0  0  0  0  0  0  0
   16.5991   -2.8048    0.0000 C   0  0  0  0  0  0  0  0  0  0  0  0
   21.1240   -4.8878    0.0000 C   0  0  0  0  0  0  0  0  0  0  0  0
   18.2924   -3.9784    0.0000 P   0  0  0  0  0  0  0  0  0  0  0  0
   10.4501   -3.3153    0.0000 C   0  0  0  0  0  0  0  0  0  0  0  0
    8.2967   -3.6813    0.0000 C   0  0  0  0  0  0  0  0  0  0  0  0
   19.7208   -4.0196    0.0000 P   0  0  0  0  0  0  0  0  0  0  0  0
   11.1507   -3.7510    0.0000 N   0  0  0  0  0  0  0  0  0  0  0  0
   14.7349   -3.4551    0.0000 C   0  0  0  0  0  0  0  0  0  0  0  0
   20.6359   -5.5443    0.0000 C   0  0  0  0  0  0  0  0  0  0  0  0
   13.3066   -3.4085    0.0000 C   0  0  0  0  0  0  0  0  0  0  0  0
   20.1130   -4.7482    0.0000 O   0  0  0  0  0  0  0  0  0  0  0  0
   24.2964   -8.5913    0.0000 N   0  0  0  0  0  0  0  0  0  0  0  0
   21.9546   -7.8165    0.0000 N   0  0  0  0  0  0  0  0  0  0  0  0
   20.4469   -3.6278    0.0000 O   0  0  0  0  0  0  0  0  0  0  0  0
   15.7746   -2.7780    0.0000 C   0  0  0  0  0  0  0  0  0  0  0  0
   11.8783   -3.3619    0.0000 C   0  0  0  0  0  0  0  0  0  0  0  0
   23.3535   -6.1980    0.0000 C   0  0  0  0  0  0  0  0  0  0  0  0
   21.9034   -5.9630    0.0000 C   0  0  0  0  0  0  0  0  0  0  0  0
   19.3858   -7.0737    0.0000 O   0  0  0  0  0  0  0  0  0  0  0  0
   19.3925   -6.2487    0.0000 P   0  0  0  0  0  0  0  0  0  0  0  0
   15.4086   -4.7153    0.0000 O   0  0  0  0  0  0  0  0  0  0  0  0
    9.0218   -3.2687    0.0000 S   0  0  0  0  0  0  0  0  0  0  0  0
   19.0184   -3.5866    0.0000 O   0  0  0  0  0  0  0  0  0  0  0  0
   22.5686   -6.4512    0.0000 N   0  0  0  0  0  0  0  0  0  0  0  0
    6.8632   -3.6937    0.0000 C   0  0  0  0  0  0  0  0  0  0  0  0
   20.1037   -6.6671    0.0000 O   0  0  0  0  0  0  0  0  0  0  0  0
   21.9075   -5.1380    0.0000 O   0  0  0  0  0  0  0  0  0  0  0  0
   23.8353   -6.8678    0.0000 N   0  0  0  0  0  0  0  0  0  0  0  0
   14.7618   -2.6305    0.0000 O   0  0  0  0  0  0  0  0  0  0  0  0
   21.1175   -6.2142    0.0000 C   0  0  0  0  0  0  0  0  0  0  0  0
   16.8639   -3.9372    0.0000 C   0  0  0  0  0  0  0  0  0  0  0  0
   19.2883   -4.7244    0.0000 O   0  0  0  0  0  0  0  0  0  0  0  0
   16.1635   -3.5056    0.0000 C   0  0  0  0  0  0  0  0  0  0  0  0
   11.9052   -2.5373    0.0000 O   0  0  0  0  0  0  0  0  0  0  0  0
   21.1492   -4.0607    0.0000 C   0  0  0  0  0  0  0  0  0  0  0  0
   23.5127   -8.3330    0.0000 C   0  0  0  0  0  0  0  0  0  0  0  0
   17.8594   -4.6807    0.0000 O   0  0  0  0  0  0  0  0  0  0  0  0
   22.5678   -7.2723    0.0000 C   0  0  0  0  0  0  0  0  0  0  0  0
   18.6841   -4.7045    0.0000 O   0  0  0  0  0  0  0  0  0  0  0  0
    7.5686   -2.4558    0.0000 C   0  0  0  0  0  0  0  0  0  0  0  0
    6.1458   -3.2865    0.0000 C   0  0  0  0  0  0  0  0  0  0  0  0
    6.1670   -4.9416    0.0000 C   0  0  0  0  0  0  0  0  0  0  0  0
    6.8761   -4.5192    0.0000 C   0  0  0  0  0  0  0  0  0  0  0  0
    5.4412   -4.5350    0.0000 C   0  0  0  0  0  0  0  0  0  0  0  0
    5.4382   -3.7040    0.0000 C   0  0  0  0  0  0  0  0  0  0  0  0
    4.6469   -3.4500    0.0000 N   0  0  0  0  0  0  0  0  0  0  0  0
    4.1608   -4.1241    0.0000 C   0  0  0  0  0  0  0  0  0  0  0  0
    4.6517   -4.7946    0.0000 O   0  0  0  0  0  0  0  0  0  0  0  0
    3.3513   -4.1271    0.0000 C   0  0  0  0  0  0  0  0  0  0  0  0
    2.9474   -3.4285    0.0000 C   0  0  0  0  0  0  0  0  0  0  0  0
    2.1387   -3.4311    0.0000 C   0  0  0  0  0  0  0  0  0  0  0  0
    1.7356   -4.1342    0.0000 C   0  0  0  0  0  0  0  0  0  0  0  0
    2.1474   -4.8361    0.0000 C   0  0  0  0  0  0  0  0  0  0  0  0
    2.9547   -4.8300    0.0000 C   0  0  0  0  0  0  0  0  0  0  0  0
    0.9185   -4.1383    0.0000 F   0  0  0  0  0  0  0  0  0  0  0  0
 22 43  1  0
  5 21  1  0
 10 34  1  0
 45 19  2  0
 29 47  2  0
 21 42  2  0
 22  7  1  6
 29  1  1  0
 15 48  1  1
 31 40  1  0
 41 30  2  0
  3 18  1  0
  6 16  1  0
 19 27  1  0
 12 18  2  0
 19 24  1  0
 37 51  1  0
 38  3  1  0
 14 46  1  0
 27 48  1  0
 13 51  2  0
 35  9  1  0
 17 20  1  0
 16 52  2  0
 40 15  1  0
 30 37  1  0
 23  5  1  0
 44  6  1  0
 33  2  1  0
 15 22  1  0
  7 33  1  0
 10 46  1  0
 46 44  1  0
  4 11  1  0
 16 36  1  0
 43  8  1  6
 43 31  1  0
 51 26  1  0
 35 18  1  0
 49 25  1  0
 46 28  1  0
 13 41  1  0
 26  4  2  0
 31 37  1  1
 32 33  1  0
 33 39  2  0
 21 10  1  0
 11 49  2  0
 50 16  1  0
 36 19  1  0
  9 17  1  0
  1 23  1  0
 49 13  1  0
 20 29  1  0
  3 53  1  1
 38 54  2  0
 54 58  1  0
 57 55  1  0
 55 56  2  0
 56 38  1  0
 57 58  2  0
 58 59  1  0
 59 60  2  0
 60 61  1  0
 61 57  1  0
 60 62  1  0
 62 63  2  0
 63 64  1  0
 64 65  2  0
 65 66  1  0
 66 67  2  0
 67 62  1  0
 65 68  1  0
M  END

> <chembl_id>
CHEMBL3526741

> <chembl_pref_name>
None

$$$$

     RDKit          2D

 69 68  0  0  1  0  0  0  0  0999 V2000
    6.2375   -1.9917    0.0000 C   0  0  0  0  0  0  0  0  0  0  0  0
    4.8125   -1.9917    0.0000 N   0  0  0  0  0  0  0  0  0  0  0  0
   11.2292   -2.4125    0.0000 N   0  0  0  0  0  0  0  0  0  0  0  0
   10.5167   -2.0000    0.0000 C   0  0  0  0  0  0  0  0  0  0  0  0
    4.1042   -2.4042    0.0000 C   0  0  0  0  0  0  0  0  0  0  0  0
    8.3792   -2.4125    0.0000 C   0  0  0  0  0  0  0  0  0  0  0  0
    1.9542   -2.0125    0.0000 C   0  0  0  0  0  0  0  0  0  0  0  0
   -0.1833   -2.4292    0.0000 C   0  0  0  0  0  0  0  0  0  0  0  0
    6.9500   -2.4042    0.0000 N   0  0  0  0  0  0  0  0  0  0  0  0
    2.6750   -2.4167    0.0000 N   0  0  0  0  0  0  0  0  0  0  0  0
    9.0917   -2.0000    0.0000 N   0  0  0  0  0  0  0  0  0  0  0  0
    0.5292   -2.0167    0.0000 N   0  0  0  0  0  0  0  0  0  0  0  0
    5.5250   -2.4042    0.0000 C   0  0  0  0  0  0  0  0  0  0  0  0
    7.6667   -1.9917    0.0000 C   0  0  0  0  0  0  0  0  0  0  0  0
   11.9417   -1.9917    0.0000 C   0  0  0  0  0  0  0  0  0  0  0  0
    7.6667   -1.1667    0.0000 C   0  0  0  0  0  0  0  0  0  0  0  0
   -2.3333   -2.0292    0.0000 C   0  0  0  0  0  0  0  0  0  0  0  0
    9.8042   -2.4125    0.0000 C   0  0  0  0  0  0  0  0  0  0  0  0
    3.3875   -2.0042    0.0000 C   0  0  0  0  0  0  0  0  0  0  0  0
    1.2417   -2.4250    0.0000 C   0  0  0  0  0  0  0  0  0  0  0  0
   12.6625   -2.4000    0.0000 C   0  0  0  0  0  0  0  0  0  0  0  0
   -1.6125   -2.4417    0.0000 N   0  0  0  0  0  0  0  0  0  0  0  0
    8.3875   -0.7625    0.0000 C   0  0  0  0  0  0  0  0  0  0  0  0
   -0.9000   -2.0250    0.0000 C   0  0  0  0  0  0  0  0  0  0  0  0
   -3.0458   -2.4500    0.0000 C   0  0  0  0  0  0  0  0  0  0  0  0
   -0.1958    0.0458    0.0000 C   0  0  0  0  0  0  0  0  0  0  0  0
   16.2292   -1.9542    0.0000 C   0  0  0  0  0  0  0  0  0  0  0  0
    6.2417   -1.1667    0.0000 O   0  0  0  0  0  0  0  0  0  0  0  0
   10.5167   -1.1750    0.0000 O   0  0  0  0  0  0  0  0  0  0  0  0
    4.1042   -3.2292    0.0000 O   0  0  0  0  0  0  0  0  0  0  0  0
    8.3792   -3.2375    0.0000 O   0  0  0  0  0  0  0  0  0  0  0  0
    1.9542   -1.1875    0.0000 O   0  0  0  0  0  0  0  0  0  0  0  0
   -0.1833   -3.2542    0.0000 O   0  0  0  0  0  0  0  0  0  0  0  0
   -2.3333   -1.2042    0.0000 O   0  0  0  0  0  0  0  0  0  0  0  0
   12.6667   -3.2250    0.0000 O   0  0  0  0  0  0  0  0  0  0  0  0
    1.2500   -3.2500    0.0000 C   0  0  0  0  0  0  0  0  0  0  0  0
    9.8042   -3.2375    0.0000 C   0  0  0  0  0  0  0  0  0  0  0  0
    3.3792   -1.1792    0.0000 C   0  0  0  0  0  0  0  0  0  0  0  0
    9.1000   -1.1750    0.0000 O   0  0  0  0  0  0  0  0  0  0  0  0
   -0.9125    0.4500    0.0000 O   0  0  0  0  0  0  0  0  0  0  0  0
   16.2250   -1.1292    0.0000 O   0  0  0  0  0  0  0  0  0  0  0  0
   -0.9083   -1.2000    0.0000 C   0  0  0  0  0  0  0  0  0  0  0  0
   13.3667   -1.9792    0.0000 S   0  0  0  0  0  0  0  0  0  0  0  0
   15.5167   -2.3750    0.0000 N   0  0  0  0  0  0  0  0  0  0  0  0
    5.5167   -3.2292    0.0000 C   0  0  0  0  0  0  0  0  0  0  0  0
   -0.1958   -0.7792    0.0000 C   0  0  0  0  0  0  0  0  0  0  0  0
   11.9375   -1.1667    0.0000 C   0  0  0  0  0  0  0  0  0  0  0  0
    0.5167    0.4583    0.0000 N   0  0  0  0  0  0  0  0  0  0  0  0
    8.3875    0.0625    0.0000 O   0  0  0  0  0  0  0  0  0  0  0  0
   -3.7583   -2.0417    0.0000 C   0  0  0  0  0  0  0  0  0  0  0  0
   -3.7583   -1.2167    0.0000 O   0  0  0  0  0  0  0  0  0  0  0  0
   10.5167   -3.6500    0.0000 C   0  0  0  0  0  0  0  0  0  0  0  0
    1.9667   -3.6625    0.0000 C   0  0  0  0  0  0  0  0  0  0  0  0
    4.0875   -0.7542    0.0000 C   0  0  0  0  0  0  0  0  0  0  0  0
   16.9500   -2.3625    0.0000 C   0  0  0  0  0  0  0  0  0  0  0  0
   14.0917   -2.3875    0.0000 C   0  0  0  0  0  0  0  0  0  0  0  0
   14.8000   -1.9667    0.0000 C   0  0  0  0  0  0  0  0  0  0  0  0
   12.6417   -0.7500    0.0000 C   0  0  0  0  0  0  0  0  0  0  0  0
    4.8042   -3.6375    0.0000 C   0  0  0  0  0  0  0  0  0  0  0  0
    6.2292   -3.6417    0.0000 C   0  0  0  0  0  0  0  0  0  0  0  0
   11.2167   -0.7625    0.0000 C   0  0  0  0  0  0  0  0  0  0  0  0
   -4.4708   -2.4542    0.0000 C   0  0  0  0  0  0  0  0  0  0  0  0
    4.8042   -1.1667    0.0000 C   0  0  0  0  0  0  0  0  0  0  0  0
    1.9667   -4.4875    0.0000 C   0  0  0  0  0  0  0  0  0  0  0  0
   10.5167   -4.4750    0.0000 C   0  0  0  0  0  0  0  0  0  0  0  0
   11.2292   -3.2375    0.0000 C   0  0  0  0  0  0  0  0  0  0  0  0
    2.6792   -3.2417    0.0000 C   0  0  0  0  0  0  0  0  0  0  0  0
    4.0792    0.0708    0.0000 C   0  0  0  0  0  0  0  0  0  0  0  0
   12.6417    0.0750    0.0000 C   0  0  0  0  0  0  0  0  0  0  0  0
 13  2  1  6
  3  4  1  0
  4 18  1  0
  5  2  1  0
  6 14  1  0
  7 10  1  0
  8 12  1  0
  9  1  1  0
 19 10  1  6
 11  6  1  0
 20 12  1  6
 13  1  1  0
 14  9  1  1
 15  3  1  1
 14 16  1  0
 17 22  1  0
 18 11  1  1
 19  5  1  0
 20  7  1  0
 21 15  1  0
 24 22  1  1
 23 16  1  0
 24  8  1  0
 25 17  1  0
 26 46  1  0
 27 44  1  0
 28  1  2  0
 29  4  2  0
 30  5  2  0
 31  6  2  0
 32  7  2  0
 33  8  2  0
 34 17  2  0
 35 21  2  0
 20 36  1  0
 18 37  1  0
 19 38  1  0
 39 23  2  0
 40 26  2  0
 41 27  2  0
 24 42  1  0
 43 21  1  0
 44 57  1  0
 13 45  1  0
 46 42  1  0
 15 47  1  0
 48 26  1  0
 49 23  1  0
 50 25  1  0
 50 51  1  6
 52 37  1  0
 53 36  1  0
 54 38  1  0
 55 27  1  0
 56 43  1  0
 57 56  1  0
 58 47  1  0
 59 45  1  0
 60 45  1  0
 47 61  1  1
 62 50  1  0
 63 54  1  0
 64 53  1  0
 65 52  1  0
 66 52  1  0
 67 53  1  0
 68 54  1  0
 69 58  1  0
M  END

> <chembl_id>
CHEMBL2371854

> <chembl_pref_name>
None

$$$$

     RDKit          2D

 59 61  0  0  1  0  0  0  0  0999 V2000
   -0.8014  -21.8375    0.0000 C   0  0  0  0  0  0  0  0  0  0  0  0
   -0.8026  -22.6648    0.0000 N   0  0  0  0  0  0  0  0  0  0  0  0
   -0.0878  -23.0777    0.0000 C   0  0  0  0  0  0  0  0  0  0  0  0
   -0.0896  -21.4247    0.0000 N   0  0  0  0  0  0  0  0  0  0  0  0
    0.6258  -21.8338    0.0000 C   0  0  0  0  0  0  0  0  0  0  0  0
    0.6261  -22.6649    0.0000 C   0  0  0  0  0  0  0  0  0  0  0  0
    1.4165  -22.9215    0.0000 N   0  0  0  0  0  0  0  0  0  0  0  0
    1.9049  -22.2490    0.0000 C   0  0  0  0  0  0  0  0  0  0  0  0
    1.4161  -21.5768    0.0000 N   0  0  0  0  0  0  0  0  0  0  0  0
    1.6708  -20.7921    0.0000 C   0  0  0  0  0  0  0  0  0  0  0  0
    2.4522  -20.5422    0.0000 O   0  0  0  0  0  0  0  0  0  0  0  0
    2.4520  -19.7172    0.0000 C   0  0  0  0  0  0  0  0  0  0  0  0
    1.6672  -19.4625    0.0000 C   0  0  0  0  0  0  0  0  0  0  0  0
    1.1826  -20.1302    0.0000 C   0  0  0  0  0  0  0  0  0  0  0  0
    3.1192  -19.2321    0.0000 C   0  0  0  0  0  0  0  0  0  0  0  0
    3.8730  -19.5674    0.0000 O   0  0  0  0  0  0  0  0  0  0  0  0
    1.4119  -18.6780    0.0000 O   0  0  0  0  0  0  0  0  0  0  0  0
    0.3576  -20.1333    0.0000 O   0  0  0  0  0  0  0  0  0  0  0  0
    1.9637  -18.0647    0.0000 P   0  0  0  0  0  0  0  0  0  0  0  0
    2.5458  -17.4750    0.0000 O   0  0  0  0  0  0  0  0  0  0  0  0
    1.3633  -17.4989    0.0000 O   0  0  0  0  0  0  0  0  0  0  0  0
    2.5615  -18.6333    0.0000 O   0  0  0  0  0  0  0  0  0  0  0  0
    4.5403  -19.0823    0.0000 P   0  0  0  0  0  0  0  0  0  0  0  0
    5.2500  -18.6625    0.0000 O   0  0  0  0  0  0  0  0  0  0  0  0
    4.0872  -18.3928    0.0000 O   0  0  0  0  0  0  0  0  0  0  0  0
    4.9938  -19.7714    0.0000 O   0  0  0  0  0  0  0  0  0  0  0  0
    5.9688  -19.0675    0.0000 P   0  0  0  0  0  0  0  0  0  0  0  0
    6.6792  -19.4792    0.0000 O   0  0  0  0  0  0  0  0  0  0  0  0
    6.3781  -18.3512    0.0000 O   0  0  0  0  0  0  0  0  0  0  0  0
    5.5629  -19.7857    0.0000 O   0  0  0  0  0  0  0  0  0  0  0  0
    7.3943  -19.0678    0.0000 C   0  0  0  0  0  0  0  0  0  0  0  0
    8.1081  -19.4815    0.0000 C   0  0  0  0  0  0  0  0  0  0  0  0
    8.8167  -19.8917    0.0000 C   0  0  0  0  0  0  0  0  0  0  0  0
    7.6946  -20.1954    0.0000 C   0  0  0  0  0  0  0  0  0  0  0  0
    8.5270  -18.7708    0.0000 C   0  0  0  0  0  0  0  0  0  0  0  0
    8.8157  -20.7167    0.0000 O   0  0  0  0  0  0  0  0  0  0  0  0
    9.5316  -19.4800    0.0000 C   0  0  0  0  0  0  0  0  0  0  0  0
   10.2456  -19.8933    0.0000 N   0  0  0  0  0  0  0  0  0  0  0  0
    9.5325  -18.6550    0.0000 O   0  0  0  0  0  0  0  0  0  0  0  0
   10.9605  -19.4816    0.0000 C   0  0  0  0  0  0  0  0  0  0  0  0
   11.6745  -19.8949    0.0000 C   0  0  0  0  0  0  0  0  0  0  0  0
   12.3895  -19.4832    0.0000 C   0  0  0  0  0  0  0  0  0  0  0  0
   13.1035  -19.8965    0.0000 N   0  0  0  0  0  0  0  0  0  0  0  0
   12.3904  -18.6582    0.0000 O   0  0  0  0  0  0  0  0  0  0  0  0
   13.8184  -19.4848    0.0000 C   0  0  0  0  0  0  0  0  0  0  0  0
   14.5324  -19.8981    0.0000 C   0  0  0  0  0  0  0  0  0  0  0  0
   15.2474  -19.4864    0.0000 S   0  0  0  0  0  0  0  0  0  0  0  0
   -0.0876  -23.9027    0.0000 N   0  0  0  0  0  0  0  0  0  0  0  0
   15.9614  -19.8997    0.0000 C   0  0  0  0  0  0  0  0  0  0  0  0
   16.6763  -19.4880    0.0000 C   0  0  0  0  0  0  0  0  0  0  0  0
   15.9604  -20.7247    0.0000 O   0  0  0  0  0  0  0  0  0  0  0  0
   17.3903  -19.9013    0.0000 C   0  0  0  0  0  0  0  0  0  0  0  0
   18.1052  -19.4896    0.0000 C   0  0  0  0  0  0  0  0  0  0  0  0
   17.3894  -20.7263    0.0000 O   0  0  0  0  0  0  0  0  0  0  0  0
   18.8193  -19.9029    0.0000 C   0  0  0  0  0  0  0  0  0  0  0  0
   19.5342  -19.4912    0.0000 C   0  0  0  0  0  0  0  0  0  0  0  0
   20.2482  -19.9045    0.0000 C   0  0  0  0  0  0  0  0  0  0  0  0
   20.9631  -19.4928    0.0000 C   0  0  0  0  0  0  0  0  0  0  0  0
   16.6772  -18.6630    0.0000 F   0  0  0  0  0  0  0  0  0  0  0  0
 12 13  1  0
 27 29  1  0
 13 14  1  0
 27 30  2  0
 14 10  1  0
 28 31  1  0
  1  2  2  0
 31 32  1  0
 12 15  1  1
 32 33  1  0
  5  4  2  0
 32 34  1  0
 15 16  1  0
 32 35  1  0
  6  7  1  0
 33 36  1  6
 13 17  1  6
 33 37  1  0
  7  8  2  0
 37 38  1  0
 14 18  1  6
 37 39  2  0
  8  9  1  0
 38 40  1  0
 17 19  1  0
 40 41  1  0
  9  5  1  0
 41 42  1  0
 19 20  1  0
 42 43  1  0
  4  1  1  0
 42 44  2  0
 19 21  2  0
 43 45  1  0
 10  9  1  1
 45 46  1  0
 19 22  1  0
 46 47  1  0
 10 11  1  0
  3 48  1  0
 16 23  1  0
 47 49  1  0
  5  6  1  0
 49 50  1  0
 23 24  1  0
 49 51  2  0
 50 52  1  0
 23 25  2  0
 52 53  1  0
  2  3  1  0
 52 54  1  0
 23 26  1  0
 53 55  2  0
  3  6  2  0
 55 56  1  0
 24 27  1  0
 56 57  1  0
 11 12  1  0
 57 58  1  0
 27 28  1  0
 50 59  1  0
M  END

> <chembl_id>
CHEMBL400857

> <chembl_pref_name>
None

$$$$

     RDKit          2D

 54 56  0  0  0  0  0  0  0  0999 V2000
   -4.8985   -2.0466    0.0000 C   0  0  0  0  0  0  0  0  0  0  0  0
   -5.3110   -1.3321    0.0000 N   0  0  0  0  0  0  0  0  0  0  0  0
   -6.1180   -1.5036    0.0000 C   0  0  0  0  0  0  0  0  0  0  0  0
   -6.2042   -2.3241    0.0000 C   0  0  0  0  0  0  0  0  0  0  0  0
   -5.4505   -2.6596    0.0000 N   0  0  0  0  0  0  0  0  0  0  0  0
   -6.7854   -1.0187    0.0000 N   0  0  0  0  0  0  0  0  0  0  0  0
   -7.5391   -1.3542    0.0000 C   0  0  0  0  0  0  0  0  0  0  0  0
   -7.6253   -2.1747    0.0000 N   0  0  0  0  0  0  0  0  0  0  0  0
   -6.9579   -2.6596    0.0000 C   0  0  0  0  0  0  0  0  0  0  0  0
   -7.0441   -3.4801    0.0000 N   0  0  0  0  0  0  0  0  0  0  0  0
   -4.9754   -0.5784    0.0000 C   0  0  0  0  0  0  0  0  0  0  0  0
   -5.3879    0.1361    0.0000 C   0  0  0  0  0  0  0  0  0  0  0  0
   -6.2084    0.2223    0.0000 O   0  0  0  0  0  0  0  0  0  0  0  0
   -4.8359    0.7492    0.0000 C   0  0  0  0  0  0  0  0  0  0  0  0
   -5.0074    1.5561    0.0000 O   0  0  0  0  0  0  0  0  0  0  0  0
   -4.0822    0.4136    0.0000 C   0  0  0  0  0  0  0  0  0  0  0  0
   -4.1685   -0.4069    0.0000 O   0  0  0  0  0  0  0  0  0  0  0  0
   -3.3678    0.8261    0.0000 C   0  0  0  0  0  0  0  0  0  0  0  0
   -2.6533    0.4136    0.0000 O   0  0  0  0  0  0  0  0  0  0  0  0
   -1.9388    0.8261    0.0000 P   0  0  0  0  0  0  0  0  0  0  0  0
   -1.5263    0.1116    0.0000 O   0  0  0  0  0  0  0  0  0  0  0  0
   -2.3513    1.5406    0.0000 O   0  0  0  0  0  0  0  0  0  0  0  0
   -1.2243    1.2386    0.0000 O   0  0  0  0  0  0  0  0  0  0  0  0
   -0.5099    0.8261    0.0000 P   0  0  0  0  0  0  0  0  0  0  0  0
   -0.9224    0.1116    0.0000 O   0  0  0  0  0  0  0  0  0  0  0  0
   -0.0974    1.5406    0.0000 O   0  0  0  0  0  0  0  0  0  0  0  0
    0.2046    0.4136    0.0000 O   0  0  0  0  0  0  0  0  0  0  0  0
    0.9191    0.8261    0.0000 C   0  0  0  0  0  0  0  0  0  0  0  0
    1.6335    0.4136    0.0000 C   0  0  0  0  0  0  0  0  0  0  0  0
    2.3480    0.0011    0.0000 C   0  0  0  0  0  0  0  0  0  0  0  0
    1.2210   -0.3009    0.0000 C   0  0  0  0  0  0  0  0  0  0  0  0
    2.0460    1.1281    0.0000 C   0  0  0  0  0  0  0  0  0  0  0  0
    2.3480   -0.8239    0.0000 O   0  0  0  0  0  0  0  0  0  0  0  0
    3.0625    0.4136    0.0000 C   0  0  0  0  0  0  0  0  0  0  0  0
    3.0625    1.2386    0.0000 O   0  0  0  0  0  0  0  0  0  0  0  0
    3.7770    0.0011    0.0000 N   0  0  0  0  0  0  0  0  0  0  0  0
    4.4914    0.4136    0.0000 C   0  0  0  0  0  0  0  0  0  0  0  0
    5.2059    0.0011    0.0000 C   0  0  0  0  0  0  0  0  0  0  0  0
    5.9204    0.4136    0.0000 C   0  0  0  0  0  0  0  0  0  0  0  0
    5.9204    1.2386    0.0000 O   0  0  0  0  0  0  0  0  0  0  0  0
    6.6348    0.0011    0.0000 N   0  0  0  0  0  0  0  0  0  0  0  0
    7.3493    0.4136    0.0000 C   0  0  0  0  0  0  0  0  0  0  0  0
    8.0638    0.0011    0.0000 C   0  0  0  0  0  0  0  0  0  0  0  0
    8.7783    0.4136    0.0000 S   0  0  0  0  0  0  0  0  0  0  0  0
   -4.3943    2.1082    0.0000 P   0  0  0  0  0  0  0  0  0  0  0  0
   -3.8423    1.4951    0.0000 O   0  0  0  0  0  0  0  0  0  0  0  0
   -4.9464    2.7213    0.0000 O   0  0  0  0  0  0  0  0  0  0  0  0
   -3.7812    2.6602    0.0000 O   0  0  0  0  0  0  0  0  0  0  0  0
    9.4927    0.0011    0.0000 C   0  0  0  0  0  0  0  0  0  0  0  0
   10.2072    0.4136    0.0000 C   0  0  0  0  0  0  0  0  0  0  0  0
   10.9217    0.0011    0.0000 C   0  0  0  0  0  0  0  0  0  0  0  0
    9.4927   -0.8239    0.0000 O   0  0  0  0  0  0  0  0  0  0  0  0
   11.6361    0.4136    0.0000 O   0  0  0  0  0  0  0  0  0  0  0  0
   10.9217   -0.8239    0.0000 O   0  0  0  0  0  0  0  0  0  0  0  0
  1  2  1  0
  1  5  2  0
  3  2  1  0
 11  2  1  1
  3  4  1  0
  3  6  2  0
  4  5  1  0
  4  9  2  0
  7  6  1  0
  7  8  2  0
  9  8  1  0
  9 10  1  0
 11 12  1  0
 11 17  1  0
 12 13  1  6
 12 14  1  0
 14 15  1  6
 14 16  1  0
 15 45  1  0
 16 17  1  0
 16 18  1  1
 18 19  1  0
 20 19  1  6
 21 20  2  0
 20 22  1  1
 23 20  1  0
 24 23  1  6
 25 24  2  0
 24 26  1  1
 27 24  1  0
 28 27  1  0
 29 28  1  0
 30 29  1  0
 31 29  1  0
 32 29  1  0
 30 33  1  6
 34 30  1  0
 34 35  2  0
 34 36  1  0
 37 36  1  0
 38 37  1  0
 39 38  1  0
 39 40  2  0
 39 41  1  0
 42 41  1  0
 43 42  1  0
 43 44  1  0
 49 44  1  0
 46 45  1  0
 47 45  1  0
 48 45  2  0
 49 50  1  0
 49 52  2  0
 50 51  1  0
 51 53  1  0
 51 54  2  0
M  END

> <chembl_id>
CHEMBL1234355

> <chembl_pref_name>
MALONYL-COENZYME A

$$$$

     RDKit          2D

 65 67  0  0  0  0  0  0  0  0999 V2000
   13.8221   -5.6956    0.0000 C   0  0  0  0  0  0  0  0  0  0  0  0
   13.4176   -4.9898    0.0000 C   0  0  0  0  0  0  0  0  0  0  0  0
   13.0087   -5.6930    0.0000 C   0  0  0  0  0  0  0  0  0  0  0  0
   14.1186   -4.5742    0.0000 C   0  0  0  0  0  0  0  0  0  0  0  0
   14.8346   -4.9682    0.0000 O   0  0  0  0  0  0  0  0  0  0  0  0
   15.5338   -4.5451    0.0000 P   0  0  0  0  0  0  0  0  0  0  0  0
   16.2497   -4.9391    0.0000 O   0  0  0  0  0  0  0  0  0  0  0  0
   16.9489   -4.5161    0.0000 P   0  0  0  0  0  0  0  0  0  0  0  0
   17.6816   -4.9101    0.0000 O   0  0  0  0  0  0  0  0  0  0  0  0
   17.6816   -5.7272    0.0000 C   0  0  0  0  0  0  0  0  0  0  0  0
   18.3975   -6.1212    0.0000 C   0  0  0  0  0  0  0  0  0  0  0  0
   19.1371   -5.7735    0.0000 O   0  0  0  0  0  0  0  0  0  0  0  0
   19.6961   -6.3653    0.0000 C   0  0  0  0  0  0  0  0  0  0  0  0
   20.5069   -6.2633    0.0000 N   0  0  0  0  0  0  0  0  0  0  0  0
   20.9005   -5.5479    0.0000 C   0  0  0  0  0  0  0  0  0  0  0  0
   21.7026   -5.7013    0.0000 N   0  0  0  0  0  0  0  0  0  0  0  0
   21.8045   -6.5115    0.0000 C   0  0  0  0  0  0  0  0  0  0  0  0
   22.4779   -6.9734    0.0000 C   0  0  0  0  0  0  0  0  0  0  0  0
   22.4137   -7.7872    0.0000 N   0  0  0  0  0  0  0  0  0  0  0  0
   21.6709   -8.1408    0.0000 C   0  0  0  0  0  0  0  0  0  0  0  0
   20.9978   -7.6737    0.0000 N   0  0  0  0  0  0  0  0  0  0  0  0
   21.0656   -6.8588    0.0000 C   0  0  0  0  0  0  0  0  0  0  0  0
   23.2153   -6.6213    0.0000 N   0  0  0  0  0  0  0  0  0  0  0  0
   19.3022   -7.0854    0.0000 C   0  0  0  0  0  0  0  0  0  0  0  0
   18.4996   -6.9320    0.0000 C   0  0  0  0  0  0  0  0  0  0  0  0
   17.9037   -7.4912    0.0000 O   0  0  0  0  0  0  0  0  0  0  0  0
   17.1214   -7.2547    0.0000 P   0  0  0  0  0  0  0  0  0  0  0  0
   16.5255   -7.8139    0.0000 O   0  0  0  0  0  0  0  0  0  0  0  0
   16.9351   -6.4590    0.0000 O   0  0  0  0  0  0  0  0  0  0  0  0
   17.5073   -7.9751    0.0000 O   0  0  0  0  0  0  0  0  0  0  0  0
   19.6508   -7.8245    0.0000 O   0  0  0  0  0  0  0  0  0  0  0  0
   16.9489   -3.6991    0.0000 O   0  0  0  0  0  0  0  0  0  0  0  0
   17.0958   -5.3166    0.0000 O   0  0  0  0  0  0  0  0  0  0  0  0
   15.5338   -3.7281    0.0000 O   0  0  0  0  0  0  0  0  0  0  0  0
   15.7408   -5.4125    0.0000 O   0  0  0  0  0  0  0  0  0  0  0  0
   12.7035   -4.6032    0.0000 C   0  0  0  0  0  0  0  0  0  0  0  0
   12.0043   -5.0262    0.0000 C   0  0  0  0  0  0  0  0  0  0  0  0
   11.2884   -4.6322    0.0000 N   0  0  0  0  0  0  0  0  0  0  0  0
   10.5892   -5.0552    0.0000 C   0  0  0  0  0  0  0  0  0  0  0  0
    9.8733   -4.6612    0.0000 C   0  0  0  0  0  0  0  0  0  0  0  0
    9.1741   -5.0842    0.0000 C   0  0  0  0  0  0  0  0  0  0  0  0
    8.4582   -4.6902    0.0000 N   0  0  0  0  0  0  0  0  0  0  0  0
    7.7590   -5.1132    0.0000 C   0  0  0  0  0  0  0  0  0  0  0  0
    7.0430   -4.7192    0.0000 C   0  0  0  0  0  0  0  0  0  0  0  0
    6.3439   -5.1422    0.0000 S   0  0  0  0  0  0  0  0  0  0  0  0
    5.6279   -4.7482    0.0000 C   0  0  0  0  0  0  0  0  0  0  0  0
    4.9287   -5.1712    0.0000 C   0  0  0  0  0  0  0  0  0  0  0  0
    4.2128   -4.7772    0.0000 C   0  0  0  0  0  0  0  0  0  0  0  0
    3.5136   -5.2003    0.0000 C   0  0  0  0  0  0  0  0  0  0  0  0
    2.7977   -4.8063    0.0000 C   0  0  0  0  0  0  0  0  0  0  0  0
    2.0985   -5.2293    0.0000 C   0  0  0  0  0  0  0  0  0  0  0  0
    1.3826   -4.8353    0.0000 C   0  0  0  0  0  0  0  0  0  0  0  0
    0.6834   -5.2583    0.0000 C   0  0  0  0  0  0  0  0  0  0  0  0
    0.6834   -6.0753    0.0000 C   0  0  0  0  0  0  0  0  0  0  0  0
    1.4161   -6.4693    0.0000 C   0  0  0  0  0  0  0  0  0  0  0  0
    2.1152   -6.0463    0.0000 C   0  0  0  0  0  0  0  0  0  0  0  0
    2.8312   -6.4403    0.0000 C   0  0  0  0  0  0  0  0  0  0  0  0
    3.5304   -6.0173    0.0000 C   0  0  0  0  0  0  0  0  0  0  0  0
    4.2463   -6.4113    0.0000 C   0  0  0  0  0  0  0  0  0  0  0  0
    4.9455   -5.9883    0.0000 C   0  0  0  0  0  0  0  0  0  0  0  0
    5.6614   -6.3823    0.0000 C   0  0  0  0  0  0  0  0  0  0  0  0
    5.6279   -3.9312    0.0000 O   0  0  0  0  0  0  0  0  0  0  0  0
    9.1741   -5.9012    0.0000 O   0  0  0  0  0  0  0  0  0  0  0  0
   12.0043   -5.8432    0.0000 O   0  0  0  0  0  0  0  0  0  0  0  0
   12.7035   -3.7861    0.0000 O   0  0  0  0  0  0  0  0  0  0  0  0
  2  1  1  0
  3  2  1  0
  4  2  1  0
  5  4  1  0
  6  5  1  0
  7  6  1  0
  8  7  1  0
  9  8  1  0
 10  9  1  0
 11 10  1  1
 12 11  1  0
 13 12  1  0
 13 14  1  1
 15 14  1  0
 16 15  2  0
 17 16  1  0
 18 17  1  0
 19 18  2  0
 20 19  1  0
 21 20  2  0
 22 21  1  0
 22 17  2  0
 14 22  1  0
 18 23  1  0
 24 13  1  0
 25 24  1  0
 11 25  1  0
 25 26  1  6
 26 27  1  0
 27 28  1  0
 27 29  2  0
 27 30  1  0
 24 31  1  6
  8 32  2  0
  8 33  1  0
  6 34  2  0
  6 35  1  0
  2 36  1  0
 36 37  1  0
 37 38  1  0
 38 39  1  0
 39 40  1  0
 40 41  1  0
 41 42  1  0
 42 43  1  0
 43 44  1  0
 44 45  1  0
 45 46  1  0
 46 47  1  0
 47 48  1  0
 48 49  1  0
 49 50  1  0
 50 51  1  0
 51 52  1  0
 52 53  1  0
 53 54  1  0
 54 55  1  0
 55 56  1  0
 56 57  1  0
 57 58  1  0
 58 59  1  0
 59 60  1  0
 60 61  1  0
 46 62  2  0
 41 63  2  0
 37 64  2  0
 36 65  1  0
M  END

> <chembl_id>
CHEMBL3904487

> <chembl_pref_name>
None

$$$$

     RDKit          2D

 19 18  0  0  1  0  0  0  0  0999 V2000
    1.5750   -0.9625    0.0000 C   0  0  0  0  0  0  0  0  0  0  0  0
    2.2917   -0.5500    0.0000 C   0  0  0  0  0  0  0  0  0  0  0  0
    0.8625   -0.5500    0.0000 N   0  0  0  0  0  0  0  0  0  0  0  0
    5.8625   -0.9625    0.0000 C   0  0  0  0  0  0  0  0  0  0  0  0
    0.1500   -0.9625    0.0000 C   0  0  0  0  0  0  0  0  0  0  0  0
    2.2917    0.2750    0.0000 O   0  0  0  0  0  0  0  0  0  0  0  0
    5.8625   -1.7875    0.0000 O   0  0  0  0  0  0  0  0  0  0  0  0
    0.1500   -1.7875    0.0000 O   0  0  0  0  0  0  0  0  0  0  0  0
    3.0042   -0.9625    0.0000 N   0  0  0  0  0  0  0  0  0  0  0  0
    5.1500   -0.5500    0.0000 S   0  0  0  0  0  0  0  0  0  0  0  0
    6.5792   -0.5500    0.0000 C   0  0  0  0  0  0  0  0  0  0  0  0
    0.8625   -2.2000    0.0000 S   0  0  0  0  0  0  0  0  0  0  0  0
    1.5750   -1.7875    0.0000 C   0  0  0  0  0  0  0  0  0  0  0  0
   -0.5708   -0.5500    0.0000 C   0  0  0  0  0  0  0  0  0  0  0  0
    3.7167   -0.5500    0.0000 C   0  0  0  0  0  0  0  0  0  0  0  0
    4.4292   -0.9625    0.0000 C   0  0  0  0  0  0  0  0  0  0  0  0
    7.2917   -0.9625    0.0000 C   0  0  0  0  0  0  0  0  0  0  0  0
    6.5792    0.2750    0.0000 C   0  0  0  0  0  0  0  0  0  0  0  0
    0.8542   -1.3667    0.0000 H   0  0  0  0  0  0  0  0  0  0  0  0
  2  1  1  0
  1  3  1  6
  4 10  1  0
  5  3  1  0
  6  2  2  0
  7  4  2  0
  8  5  2  0
  9  2  1  0
 10 16  1  0
 11  4  1  0
 12 13  1  0
 13  1  1  0
 14  5  1  0
 15  9  1  0
 16 15  1  0
 17 11  1  0
 18 11  1  0
  1 19  1  1
M  END

> <chembl_id>
CHEMBL53626

> <chembl_pref_name>
None

$$$$

     RDKit          2D

 62 64  0  0  1  0  0  0  0  0999 V2000
   -0.6375    2.0625    0.0000 N   0  0  0  0  0  0  0  0  0  0  0  0
    0.7792    3.9083    0.0000 N   0  0  0  0  0  0  0  0  0  0  0  0
   -1.5583   -1.0375    0.0000 C   0  0  0  0  0  0  0  0  0  0  0  0
   -0.8250   -0.7542    0.0000 C   0  0  0  0  0  0  0  0  0  0  0  0
    3.0167    3.3000    0.0000 N   0  0  0  0  0  0  0  0  0  0  0  0
    0.0750    3.5000    0.0000 C   0  0  0  0  0  0  0  0  0  0  0  0
   -0.5208    1.2500    0.0000 C   0  0  0  0  0  0  0  0  0  0  0  0
    3.3167    0.9958    0.0000 N   0  0  0  0  0  0  0  0  0  0  0  0
    2.3792    3.8000    0.0000 C   0  0  0  0  0  0  0  0  0  0  0  0
   -1.5583   -1.7875    0.0000 N   0  0  0  0  0  0  0  0  0  0  0  0
    3.5292    1.7875    0.0000 C   0  0  0  0  0  0  0  0  0  0  0  0
   -0.1208    0.5458    0.0000 C   0  0  0  0  0  0  0  0  0  0  0  0
    1.5875    4.0125    0.0000 C   0  0  0  0  0  0  0  0  0  0  0  0
   -0.4208    2.8625    0.0000 C   0  0  0  0  0  0  0  0  0  0  0  0
   -2.2458   -2.1375    0.0000 C   0  0  0  0  0  0  0  0  0  0  0  0
   -0.7333    0.0000    0.0000 N   0  0  0  0  0  0  0  0  0  0  0  0
    2.1250   -0.0542    0.0000 C   0  0  0  0  0  0  0  0  0  0  0  0
    3.4250    2.6000    0.0000 C   0  0  0  0  0  0  0  0  0  0  0  0
   -3.0833   -3.9042    0.0000 C   0  0  0  0  0  0  0  0  0  0  0  0
   -2.9833   -3.1417    0.0000 N   0  0  0  0  0  0  0  0  0  0  0  0
   -2.2708   -2.9042    0.0000 C   0  0  0  0  0  0  0  0  0  0  0  0
    2.8250    0.3500    0.0000 C   0  0  0  0  0  0  0  0  0  0  0  0
    1.3167   -0.1667    0.0000 S   0  0  0  0  0  0  0  0  0  0  0  0
    0.5292    0.0458    0.0000 C   0  0  0  0  0  0  0  0  0  0  0  0
   -3.8083   -4.1792    0.0000 C   0  0  0  0  0  0  0  0  0  0  0  0
   -0.1958   -1.2167    0.0000 O   0  0  0  0  0  0  0  0  0  0  0  0
   -0.4583    4.1167    0.0000 O   0  0  0  0  0  0  0  0  0  0  0  0
    2.7375    4.5292    0.0000 O   0  0  0  0  0  0  0  0  0  0  0  0
   -0.9833    1.0708    0.0000 O   0  0  0  0  0  0  0  0  0  0  0  0
    4.2250    2.0250    0.0000 O   0  0  0  0  0  0  0  0  0  0  0  0
   -2.8750   -1.6792    0.0000 O   0  0  0  0  0  0  0  0  0  0  0  0
    3.3667   -0.2542    0.0000 C   0  0  0  0  0  0  0  0  0  0  0  0
   -2.4458   -4.3542    0.0000 O   0  0  0  0  0  0  0  0  0  0  0  0
    2.2667   -0.5417    0.0000 O   0  0  0  0  0  0  0  0  0  0  0  0
    4.2000    2.8625    0.0000 C   0  0  0  0  0  0  0  0  0  0  0  0
   -4.4458   -3.7292    0.0000 C   0  0  0  0  0  0  0  0  0  0  0  0
   -2.1875   -0.5792    0.0000 C   0  0  0  0  0  0  0  0  0  0  0  0
   -4.3708   -2.9542    0.0000 C   0  0  0  0  0  0  0  0  0  0  0  0
   -3.8000   -4.9375    0.0000 N   0  0  0  0  0  0  0  0  0  0  0  0
   -4.2208   -1.4167    0.0000 C   0  0  0  0  0  0  0  0  0  0  0  0
    1.6375    4.8250    0.0000 C   0  0  0  0  0  0  0  0  0  0  0  0
   -1.1458    3.2083    0.0000 C   0  0  0  0  0  0  0  0  0  0  0  0
    3.1042   -1.0417    0.0000 C   0  0  0  0  0  0  0  0  0  0  0  0
   -1.6375   -3.3667    0.0000 C   0  0  0  0  0  0  0  0  0  0  0  0
   -3.6625   -2.6375    0.0000 C   0  0  0  0  0  0  0  0  0  0  0  0
   -5.0000   -2.5042    0.0000 C   0  0  0  0  0  0  0  0  0  0  0  0
   -3.5875   -1.8667    0.0000 C   0  0  0  0  0  0  0  0  0  0  0  0
   -4.9208   -1.7375    0.0000 C   0  0  0  0  0  0  0  0  0  0  0  0
   -2.1125    0.1958    0.0000 O   0  0  0  0  0  0  0  0  0  0  0  0
   -4.1458   -0.6500    0.0000 O   0  0  0  0  0  0  0  0  0  0  0  0
    2.3750    5.1792    0.0000 O   0  0  0  0  0  0  0  0  0  0  0  0
   -1.2083    4.0167    0.0000 O   0  0  0  0  0  0  0  0  0  0  0  0
   -0.9250   -3.0417    0.0000 O   0  0  0  0  0  0  0  0  0  0  0  0
    4.8042    2.3208    0.0000 C   0  0  0  0  0  0  0  0  0  0  0  0
   -2.9000   -0.9000    0.0000 C   0  0  0  0  0  0  0  0  0  0  0  0
    3.6375   -1.6542    0.0000 C   0  0  0  0  0  0  0  0  0  0  0  0
    2.3000   -1.2000    0.0000 C   0  0  0  0  0  0  0  0  0  0  0  0
    5.5792    2.5833    0.0000 C   0  0  0  0  0  0  0  0  0  0  0  0
    4.6542    1.5208    0.0000 C   0  0  0  0  0  0  0  0  0  0  0  0
    2.0375   -1.9792    0.0000 C   0  0  0  0  0  0  0  0  0  0  0  0
    3.3792   -2.4292    0.0000 C   0  0  0  0  0  0  0  0  0  0  0  0
    2.5792   -2.5792    0.0000 C   0  0  0  0  0  0  0  0  0  0  0  0
  2  6  1  0
  3  4  1  0
  4 16  1  0
  5  9  1  0
  6 14  1  0
  7  1  1  0
  8 22  1  0
  9 13  1  0
  3 10  1  1
 11 18  1  0
 12  7  1  0
 13  2  1  0
 14  1  1  0
 15 10  1  0
 12 16  1  1
 17 23  1  0
 18  5  1  0
 19 20  1  0
 21 20  1  6
 21 15  1  0
 22 17  1  0
 23 24  1  0
 12 24  1  0
 25 19  1  0
 26  4  2  0
 27  6  2  0
 28  9  2  0
 29  7  2  0
 30 11  2  0
 31 15  2  0
 22 32  1  1
 33 19  2  0
 34 17  2  0
 18 35  1  6
 25 36  1  0
  3 37  1  0
 38 36  1  0
 25 39  1  1
 40 48  2  0
 13 41  1  1
 14 42  1  6
 43 32  1  0
 21 44  1  0
 45 38  1  0
 46 38  2  0
 47 45  2  0
 48 46  1  0
 37 49  1  1
 50 40  1  0
 51 41  1  0
 52 42  1  0
 53 44  1  0
 54 35  1  0
 55 37  1  0
 56 43  1  0
 57 43  2  0
 58 54  1  0
 59 54  1  0
 60 57  1  0
 61 56  2  0
 62 60  2  0
  8 11  1  0
 61 62  1  0
 47 40  1  0
M  END

> <chembl_id>
CHEMBL359961

> <chembl_pref_name>
None

$$$$

     RDKit          2D

 64 66  0  0  1  0  0  0  0  0999 V2000
    3.0125   -1.6042    0.0000 N   0  0  0  0  0  0  0  0  0  0  0  0
    1.9542   -2.3042    0.0000 C   0  0  0  0  0  0  0  0  0  0  0  0
   -1.4000    0.6708    0.0000 C   0  0  0  0  0  0  0  0  0  0  0  0
   -0.8625    0.3083    0.0000 C   0  0  0  0  0  0  0  0  0  0  0  0
    1.3167    0.9458    0.0000 N   0  0  0  0  0  0  0  0  0  0  0  0
    3.0125    0.2375    0.0000 N   0  0  0  0  0  0  0  0  0  0  0  0
    0.7167    0.7000    0.0000 C   0  0  0  0  0  0  0  0  0  0  0  0
    1.3167   -2.3042    0.0000 N   0  0  0  0  0  0  0  0  0  0  0  0
    3.2667   -1.0042    0.0000 C   0  0  0  0  0  0  0  0  0  0  0  0
   -1.9833    0.3833    0.0000 N   0  0  0  0  0  0  0  0  0  0  0  0
    2.5542    0.7000    0.0000 C   0  0  0  0  0  0  0  0  0  0  0  0
    0.2542    0.2375    0.0000 C   0  0  0  0  0  0  0  0  0  0  0  0
   -2.5208    0.7458    0.0000 C   0  0  0  0  0  0  0  0  0  0  0  0
    2.5542   -2.0542    0.0000 C   0  0  0  0  0  0  0  0  0  0  0  0
    1.9542    0.9458    0.0000 C   0  0  0  0  0  0  0  0  0  0  0  0
   -0.2833    0.6000    0.0000 N   0  0  0  0  0  0  0  0  0  0  0  0
    3.2667   -0.3542    0.0000 C   0  0  0  0  0  0  0  0  0  0  0  0
   -4.2208    0.5333    0.0000 C   0  0  0  0  0  0  0  0  0  0  0  0
   -3.6333    0.8208    0.0000 N   0  0  0  0  0  0  0  0  0  0  0  0
   -3.1000    0.4583    0.0000 C   0  0  0  0  0  0  0  0  0  0  0  0
    0.2542   -1.6042    0.0000 C   0  0  0  0  0  0  0  0  0  0  0  0
    0.0125   -1.0042    0.0000 S   0  0  0  0  0  0  0  0  0  0  0  0
    2.0875    1.5833    0.0000 C   0  0  0  0  0  0  0  0  0  0  0  0
    0.7167   -2.0542    0.0000 C   0  0  0  0  0  0  0  0  0  0  0  0
    2.7000    1.7833    0.0000 C   0  0  0  0  0  0  0  0  0  0  0  0
    0.0125   -0.3542    0.0000 C   0  0  0  0  0  0  0  0  0  0  0  0
   -4.7583    0.8958    0.0000 C   0  0  0  0  0  0  0  0  0  0  0  0
    2.0875   -2.9417    0.0000 O   0  0  0  0  0  0  0  0  0  0  0  0
   -0.9000   -0.3375    0.0000 O   0  0  0  0  0  0  0  0  0  0  0  0
    0.3542    1.2333    0.0000 O   0  0  0  0  0  0  0  0  0  0  0  0
    3.9000   -1.1292    0.0000 O   0  0  0  0  0  0  0  0  0  0  0  0
    2.9167    1.2333    0.0000 O   0  0  0  0  0  0  0  0  0  0  0  0
   -2.4833    1.3958    0.0000 O   0  0  0  0  0  0  0  0  0  0  0  0
    3.9000   -0.2292    0.0000 C   0  0  0  0  0  0  0  0  0  0  0  0
   -4.2708   -0.1167    0.0000 O   0  0  0  0  0  0  0  0  0  0  0  0
   -0.2833   -1.9542    0.0000 O   0  0  0  0  0  0  0  0  0  0  0  0
   -4.7208    1.5458    0.0000 C   0  0  0  0  0  0  0  0  0  0  0  0
   -1.3583    1.3208    0.0000 C   0  0  0  0  0  0  0  0  0  0  0  0
    2.8250    2.4208    0.0000 O   0  0  0  0  0  0  0  0  0  0  0  0
    2.9167   -2.6000    0.0000 C   0  0  0  0  0  0  0  0  0  0  0  0
   -5.2708    1.9083    0.0000 C   0  0  0  0  0  0  0  0  0  0  0  0
   -5.3458    0.6000    0.0000 N   0  0  0  0  0  0  0  0  0  0  0  0
   -6.3375    2.6250    0.0000 C   0  0  0  0  0  0  0  0  0  0  0  0
    3.1875    1.3625    0.0000 O   0  0  0  0  0  0  0  0  0  0  0  0
    4.3250   -0.7167    0.0000 C   0  0  0  0  0  0  0  0  0  0  0  0
   -3.1458   -0.1875    0.0000 C   0  0  0  0  0  0  0  0  0  0  0  0
   -5.2208    2.5583    0.0000 C   0  0  0  0  0  0  0  0  0  0  0  0
   -5.8458    1.6208    0.0000 C   0  0  0  0  0  0  0  0  0  0  0  0
   -5.7583    2.9208    0.0000 C   0  0  0  0  0  0  0  0  0  0  0  0
   -6.3750    1.9833    0.0000 C   0  0  0  0  0  0  0  0  0  0  0  0
   -0.7750    1.6083    0.0000 O   0  0  0  0  0  0  0  0  0  0  0  0
   -6.8792    2.9875    0.0000 O   0  0  0  0  0  0  0  0  0  0  0  0
   -2.6000   -0.5417    0.0000 O   0  0  0  0  0  0  0  0  0  0  0  0
    0.3542   -2.6000    0.0000 C   0  0  0  0  0  0  0  0  0  0  0  0
    3.5625   -2.5542    0.0000 C   0  0  0  0  0  0  0  0  0  0  0  0
   -1.9083    1.6833    0.0000 C   0  0  0  0  0  0  0  0  0  0  0  0
    2.6292   -3.1792    0.0000 C   0  0  0  0  0  0  0  0  0  0  0  0
    4.9625   -0.5917    0.0000 C   0  0  0  0  0  0  0  0  0  0  0  0
    4.1167   -1.3292    0.0000 C   0  0  0  0  0  0  0  0  0  0  0  0
    3.9167   -3.0917    0.0000 C   0  0  0  0  0  0  0  0  0  0  0  0
    5.3875   -1.0792    0.0000 C   0  0  0  0  0  0  0  0  0  0  0  0
    4.5417   -1.8125    0.0000 C   0  0  0  0  0  0  0  0  0  0  0  0
    5.1750   -1.6917    0.0000 C   0  0  0  0  0  0  0  0  0  0  0  0
    3.5488   -2.1581    0.0000 H   0  0  0  0  0  0  0  0  0  0  0  0
  2 14  1  0
  3  4  1  0
  4 16  1  0
  5 15  1  0
  6 17  1  0
  7  5  1  0
  8  2  1  0
  9  1  1  0
  3 10  1  1
 11  6  1  0
 12 26  1  0
 13 10  1  0
 14  1  1  0
 15 11  1  0
 12 16  1  6
 17  9  1  0
 18 19  1  0
 20 19  1  6
 20 13  1  0
 21 24  1  0
 22 21  1  0
 15 23  1  1
 24  8  1  0
 25 23  1  0
 26 22  1  0
 27 18  1  0
 28  2  2  0
 29  4  2  0
 30  7  2  0
 31  9  2  0
 32 11  2  0
 33 13  2  0
 17 34  1  6
 35 18  2  0
 36 21  2  0
 27 37  1  0
  3 38  1  0
 39 25  2  0
 14 40  1  0
 41 37  1  0
 27 42  1  1
 43 50  1  0
 44 25  1  0
 45 34  1  0
 20 46  1  0
 47 41  2  0
 48 41  1  0
 49 47  1  0
 50 48  2  0
 38 51  1  1
 52 43  1  0
 53 46  1  0
 24 54  1  6
 55 40  1  0
 56 38  1  0
 40 57  1  6
 58 45  1  0
 59 45  2  0
 60 55  1  0
 61 58  2  0
 62 59  1  0
 63 62  2  0
 61 63  1  0
  7 12  1  0
 49 43  2  0
 14 64  1  6
M  END

> <chembl_id>
CHEMBL425533

> <chembl_pref_name>
None

$$$$

     RDKit          2D

 19 18  0  0  0  0  0  0  0  0999 V2000
   -5.0973    3.1821    0.0000 C   0  0  0  0  0  0  0  0  0  0  0  0
   -5.0973    2.3571    0.0000 O   0  0  0  0  0  0  0  0  0  0  0  0
   -4.3829    1.9446    0.0000 C   0  0  0  0  0  0  0  0  0  0  0  0
   -4.3829    1.1196    0.0000 O   0  0  0  0  0  0  0  0  0  0  0  0
   -3.6684    2.3571    0.0000 N   0  0  0  0  0  0  0  0  0  0  0  0
   -2.9539    1.9446    0.0000 C   0  0  0  0  0  0  0  0  0  0  0  0
   -2.2394    2.3571    0.0000 C   0  0  0  0  0  0  0  0  0  0  0  0
   -2.9539    1.1196    0.0000 C   0  0  0  0  0  0  0  0  0  0  0  0
   -1.5250    1.9446    0.0000 S   0  0  0  0  0  0  0  0  0  0  0  0
   -2.2394    3.1821    0.0000 O   0  0  0  0  0  0  0  0  0  0  0  0
   -1.5250    1.1196    0.0000 C   0  0  0  0  0  0  0  0  0  0  0  0
   -0.8105    0.7071    0.0000 C   0  0  0  0  0  0  0  0  0  0  0  0
   -0.8105   -0.1179    0.0000 N   0  0  0  0  0  0  0  0  0  0  0  0
   -0.0960   -0.5304    0.0000 C   0  0  0  0  0  0  0  0  0  0  0  0
   -0.0960   -1.3554    0.0000 C   0  0  0  0  0  0  0  0  0  0  0  0
    0.6184   -0.1179    0.0000 O   0  0  0  0  0  0  0  0  0  0  0  0
   -5.8118    3.5946    0.0000 C   0  0  0  0  0  0  0  0  0  0  0  0
   -4.3829    3.5946    0.0000 C   0  0  0  0  0  0  0  0  0  0  0  0
   -5.0973    4.0071    0.0000 C   0  0  0  0  0  0  0  0  0  0  0  0
  1  2  1  0
  2  3  1  0
  3  4  2  0
  3  5  1  0
  5  6  1  0
  6  7  1  0
  6  8  1  6
  7  9  1  0
  7 10  2  0
  9 11  1  0
 11 12  1  0
 12 13  1  0
 13 14  1  0
 14 15  1  0
 14 16  2  0
  1 17  1  0
  1 18  1  0
  1 19  1  0
M  END

> <chembl_id>
CHEMBL449268

> <chembl_pref_name>
None

$$$$

     RDKit          2D

 66 70  0  0  0  0  0  0  0  0999 V2000
   16.0272   -5.2500    0.0000 C   0  0  0  0  0  0  0  0  0  0  0  0
   16.7412   -5.6635    0.0000 C   0  0  0  0  0  0  0  0  0  0  0  0
   16.0282   -4.4250    0.0000 O   0  0  0  0  0  0  0  0  0  0  0  0
   16.7401   -6.4885    0.0000 O   0  0  0  0  0  0  0  0  0  0  0  0
   17.4562   -5.2519    0.0000 C   0  0  0  0  0  0  0  0  0  0  0  0
   18.1702   -5.6654    0.0000 C   0  0  0  0  0  0  0  0  0  0  0  0
   18.0367   -4.6614    0.0000 C   0  0  0  0  0  0  0  0  0  0  0  0
   16.8658   -4.6614    0.0000 C   0  0  0  0  0  0  0  0  0  0  0  0
   18.8851   -5.2538    0.0000 O   0  0  0  0  0  0  0  0  0  0  0  0
   19.5991   -5.6672    0.0000 P   0  0  0  0  0  0  0  0  0  0  0  0
   20.3141   -5.2556    0.0000 O   0  0  0  0  0  0  0  0  0  0  0  0
   19.1783   -6.3781    0.0000 O   0  0  0  0  0  0  0  0  0  0  0  0
   20.1783   -6.2490    0.0000 O   0  0  0  0  0  0  0  0  0  0  0  0
   21.0281   -5.6690    0.0000 P   0  0  0  0  0  0  0  0  0  0  0  0
   20.8076   -6.4615    0.0000 O   0  0  0  0  0  0  0  0  0  0  0  0
   21.4325   -6.3781    0.0000 O   0  0  0  0  0  0  0  0  0  0  0  0
   21.7367   -5.2489    0.0000 O   0  0  0  0  0  0  0  0  0  0  0  0
   22.4559   -5.6533    0.0000 C   0  0  0  0  0  0  0  0  0  0  0  0
   23.1053   -5.1441    0.0000 C   0  0  0  0  0  0  0  0  0  0  0  0
   23.8947   -5.3689    0.0000 C   0  0  0  0  0  0  0  0  0  0  0  0
   24.3551   -4.6843    0.0000 C   0  0  0  0  0  0  0  0  0  0  0  0
   23.8461   -4.0348    0.0000 C   0  0  0  0  0  0  0  0  0  0  0  0
   23.0714   -4.3182    0.0000 O   0  0  0  0  0  0  0  0  0  0  0  0
   24.1781   -6.1437    0.0000 O   0  0  0  0  0  0  0  0  0  0  0  0
   25.1796   -4.6543    0.0000 O   0  0  0  0  0  0  0  0  0  0  0  0
   24.0866   -3.2466    0.0000 N   0  0  0  0  0  0  0  0  0  0  0  0
   24.0578   -1.9131    0.0000 N   0  0  0  0  0  0  0  0  0  0  0  0
   23.5888   -2.5929    0.0000 C   0  0  0  0  0  0  0  0  0  0  0  0
   24.8491   -2.1505    0.0000 C   0  0  0  0  0  0  0  0  0  0  0  0
   24.8634   -2.9762    0.0000 C   0  0  0  0  0  0  0  0  0  0  0  0
   25.5845   -3.3750    0.0000 N   0  0  0  0  0  0  0  0  0  0  0  0
   26.2919   -2.9492    0.0000 N   0  0  0  0  0  0  0  0  0  0  0  0
   26.2736   -2.1203    0.0000 C   0  0  0  0  0  0  0  0  0  0  0  0
   25.5520   -1.7253    0.0000 C   0  0  0  0  0  0  0  0  0  0  0  0
   25.5341   -0.9004    0.0000 N   0  0  0  0  0  0  0  0  0  0  0  0
   23.6488   -6.7765    0.0000 P   0  0  0  0  0  0  0  0  0  0  0  0
   24.0535   -7.4866    0.0000 O   0  0  0  0  0  0  0  0  0  0  0  0
   23.0576   -6.1865    0.0000 O   0  0  0  0  0  0  0  0  0  0  0  0
   23.0576   -7.3573    0.0000 O   0  0  0  0  0  0  0  0  0  0  0  0
   10.3150   -5.2423    0.0000 S   0  0  0  0  0  0  0  0  0  0  0  0
   11.0290   -5.6557    0.0000 C   0  0  0  0  0  0  0  0  0  0  0  0
   11.7440   -5.2441    0.0000 C   0  0  0  0  0  0  0  0  0  0  0  0
   12.4579   -5.6575    0.0000 N   0  0  0  0  0  0  0  0  0  0  0  0
   13.1729   -5.2459    0.0000 C   0  0  0  0  0  0  0  0  0  0  0  0
   13.8869   -5.6593    0.0000 C   0  0  0  0  0  0  0  0  0  0  0  0
   13.1740   -4.4209    0.0000 O   0  0  0  0  0  0  0  0  0  0  0  0
   14.6019   -5.2477    0.0000 C   0  0  0  0  0  0  0  0  0  0  0  0
   15.3159   -5.6611    0.0000 N   0  0  0  0  0  0  0  0  0  0  0  0
    9.5971   -5.6524    0.0000 C   0  0  0  0  0  0  0  0  0  0  0  0
    3.8881   -6.4983    0.0000 C   0  0  0  0  0  0  0  0  0  0  0  0
    3.8884   -5.6741    0.0000 C   0  0  0  0  0  0  0  0  0  0  0  0
    3.1734   -5.2639    0.0000 C   0  0  0  0  0  0  0  0  0  0  0  0
    2.4593   -5.6787    0.0000 C   0  0  0  0  0  0  0  0  0  0  0  0
    2.4646   -6.5081    0.0000 C   0  0  0  0  0  0  0  0  0  0  0  0
    3.1802   -6.9144    0.0000 C   0  0  0  0  0  0  0  0  0  0  0  0
   10.3961   -6.6918    0.0000 C   0  0  0  0  0  0  0  0  0  0  0  0
    9.6002   -6.4793    0.0000 C   0  0  0  0  0  0  0  0  0  0  0  0
    9.8141   -7.2748    0.0000 O   0  0  0  0  0  0  0  0  0  0  0  0
    6.7460   -6.4892    0.0000 C   0  0  0  0  0  0  0  0  0  0  0  0
    7.4618   -6.8994    0.0000 C   0  0  0  0  0  0  0  0  0  0  0  0
    8.1750   -6.4845    0.0000 C   0  0  0  0  0  0  0  0  0  0  0  0
    8.8908   -6.8948    0.0000 C   0  0  0  0  0  0  0  0  0  0  0  0
    8.8874   -5.2415    0.0000 O   0  0  0  0  0  0  0  0  0  0  0  0
    6.0329   -6.9039    0.0000 C   0  0  0  0  0  0  0  0  0  0  0  0
    5.3171   -6.4937    0.0000 C   0  0  0  0  0  0  0  0  0  0  0  0
    4.6039   -6.9085    0.0000 O   0  0  0  0  0  0  0  0  0  0  0  0
  1  2  1  0
  1  3  2  0
  2  4  1  1
  2  5  1  0
  5  6  1  0
  5  7  1  0
  5  8  1  0
  6  9  1  0
  9 10  1  0
 10 11  1  0
 10 12  2  0
 10 13  1  0
 11 14  1  0
 14 15  2  0
 14 16  1  0
 14 17  1  0
 17 18  1  0
 19 18  1  1
 19 20  1  0
 20 21  1  0
 21 22  1  0
 22 23  1  0
 23 19  1  0
 20 24  1  6
 21 25  1  6
 26 30  1  0
 29 27  1  0
 27 28  2  0
 28 26  1  0
 22 26  1  1
 29 30  2  0
 30 31  1  0
 31 32  2  0
 32 33  1  0
 33 34  2  0
 34 29  1  0
 34 35  1  0
 24 36  1  0
 36 37  1  0
 36 38  2  0
 36 39  1  0
 49 40  1  0
 40 41  1  0
 41 42  1  0
 42 43  1  0
 43 44  1  0
 44 45  1  0
 44 46  2  0
 45 47  1  0
 47 48  1  0
 48  1  1  0
 50 51  2  0
 51 52  1  0
 52 53  2  0
 53 54  1  0
 54 55  2  0
 55 50  1  0
 57 56  1  0
 58 57  1  0
 56 58  1  0
 59 60  1  0
 60 61  1  0
 61 62  1  0
 57 62  1  0
 57 49  1  0
 49 63  2  0
 59 64  1  0
 64 65  1  0
 65 66  1  0
 66 50  1  0
M  END

> <chembl_id>
CHEMBL2216790

> <chembl_pref_name>
None

$$$$

     RDKit          2D

 64 66  0  0  0  0  0  0  0  0999 V2000
   20.0294   -4.2354    0.0000 C   0  0  0  0  0  0  0  0  0  0  0  0
   20.7453   -3.8187    0.0000 C   0  0  0  0  0  0  0  0  0  0  0  0
   21.4570   -4.2354    0.0000 N   0  0  0  0  0  0  0  0  0  0  0  0
   20.7453   -2.9937    0.0000 C   0  0  0  0  0  0  0  0  0  0  0  0
   20.0294   -2.5812    0.0000 C   0  0  0  0  0  0  0  0  0  0  0  0
   20.0294   -1.7562    0.0000 S   0  0  0  0  0  0  0  0  0  0  0  0
   19.3135   -1.3437    0.0000 C   0  0  0  0  0  0  0  0  0  0  0  0
   19.3135   -3.8187    0.0000 O   0  0  0  0  0  0  0  0  0  0  0  0
   20.0294   -5.0604    0.0000 S   0  0  0  0  0  0  0  0  0  0  0  0
   19.3135   -5.4729    0.0000 C   0  0  0  0  0  0  0  0  0  0  0  0
   19.3135   -6.2979    0.0000 C   0  0  0  0  0  0  0  0  0  0  0  0
   18.5977   -6.7104    0.0000 N   0  0  0  0  0  0  0  0  0  0  0  0
   20.0294   -6.7104    0.0000 C   0  0  0  0  0  0  0  0  0  0  0  0
   20.0294   -7.5354    0.0000 O   0  0  0  0  0  0  0  0  0  0  0  0
   20.7453   -6.2979    0.0000 N   0  0  0  0  0  0  0  0  0  0  0  0
   21.4570   -6.7104    0.0000 C   0  0  0  0  0  0  0  0  0  0  0  0
   22.1728   -6.2979    0.0000 C   0  0  0  0  0  0  0  0  0  0  0  0
   21.4570   -7.5354    0.0000 C   0  0  0  0  0  0  0  0  0  0  0  0
   22.8845   -6.7104    0.0000 N   0  0  0  0  0  0  0  0  0  0  0  0
   22.1728   -5.4729    0.0000 O   0  0  0  0  0  0  0  0  0  0  0  0
   23.6004   -6.2979    0.0000 C   0  0  0  0  0  0  0  0  0  0  0  0
   24.3163   -6.7104    0.0000 C   0  0  0  0  0  0  0  0  0  0  0  0
   23.6004   -5.4729    0.0000 C   0  0  0  0  0  0  0  0  0  0  0  0
   24.3163   -7.5354    0.0000 C   0  0  0  0  0  0  0  0  0  0  0  0
   23.5974   -7.9459    0.0000 C   0  0  0  0  0  0  0  0  0  0  0  0
   23.5969   -8.7698    0.0000 C   0  0  0  0  0  0  0  0  0  0  0  0
   24.3135   -9.1835    0.0000 C   0  0  0  0  0  0  0  0  0  0  0  0
   25.0288   -8.7643    0.0000 C   0  0  0  0  0  0  0  0  0  0  0  0
   25.0282   -7.9425    0.0000 C   0  0  0  0  0  0  0  0  0  0  0  0
   24.3163   -5.0604    0.0000 O   0  0  0  0  0  0  0  0  0  0  0  0
   22.1728   -3.8187    0.0000 C   0  0  0  0  0  0  0  0  0  0  0  0
   22.8845   -4.2354    0.0000 C   0  0  0  0  0  0  0  0  0  0  0  0
   22.1728   -2.9937    0.0000 O   0  0  0  0  0  0  0  0  0  0  0  0
   23.6004   -3.8187    0.0000 C   0  0  0  0  0  0  0  0  0  0  0  0
   22.8768   -5.0541    0.0000 N   0  0  0  0  0  0  0  0  0  0  0  0
   24.3163   -4.2354    0.0000 C   0  0  0  0  0  0  0  0  0  0  0  0
   23.6004   -2.9937    0.0000 C   0  0  0  0  0  0  0  0  0  0  0  0
   24.3163   -2.5812    0.0000 C   0  0  0  0  0  0  0  0  0  0  0  0
   17.8860   -6.2979    0.0000 C   0  0  0  0  0  0  0  0  0  0  0  0
   17.1701   -6.7104    0.0000 C   0  0  0  0  0  0  0  0  0  0  0  0
   17.8860   -5.4729    0.0000 O   0  0  0  0  0  0  0  0  0  0  0  0
   16.4543   -6.2979    0.0000 N   0  0  0  0  0  0  0  0  0  0  0  0
   17.1701   -7.5354    0.0000 C   0  0  0  0  0  0  0  0  0  0  0  0
   16.4543   -7.9479    0.0000 C   0  0  0  0  0  0  0  0  0  0  0  0
   17.8860   -7.9479    0.0000 O   0  0  0  0  0  0  0  0  0  0  0  0
   15.7426   -6.7104    0.0000 C   0  0  0  0  0  0  0  0  0  0  0  0
   15.0267   -6.2979    0.0000 C   0  0  0  0  0  0  0  0  0  0  0  0
   15.7426   -7.5354    0.0000 O   0  0  0  0  0  0  0  0  0  0  0  0
   15.0267   -5.4729    0.0000 N   0  0  0  0  0  0  0  0  0  0  0  0
   14.3108   -6.7104    0.0000 C   0  0  0  0  0  0  0  0  0  0  0  0
   13.5991   -6.2979    0.0000 O   0  0  0  0  0  0  0  0  0  0  0  0
   14.3108   -5.0604    0.0000 C   0  0  0  0  0  0  0  0  0  0  0  0
   14.3108   -4.2354    0.0000 C   0  0  0  0  0  0  0  0  0  0  0  0
   13.5991   -5.4729    0.0000 O   0  0  0  0  0  0  0  0  0  0  0  0
   15.0267   -3.8187    0.0000 C   0  0  0  0  0  0  0  0  0  0  0  0
   13.5991   -3.8187    0.0000 N   0  0  0  0  0  0  0  0  0  0  0  0
   15.0267   -2.9937    0.0000 C   0  0  0  0  0  0  0  0  0  0  0  0
   15.7451   -2.5823    0.0000 C   0  0  0  0  0  0  0  0  0  0  0  0
   15.7456   -1.7585    0.0000 C   0  0  0  0  0  0  0  0  0  0  0  0
   15.0289   -1.3447    0.0000 C   0  0  0  0  0  0  0  0  0  0  0  0
   14.3095   -1.7640    0.0000 C   0  0  0  0  0  0  0  0  0  0  0  0
   14.3143   -2.5857    0.0000 C   0  0  0  0  0  0  0  0  0  0  0  0
   15.0273   -0.5197    0.0000 O   0  0  0  0  0  0  0  0  0  0  0  0
   23.7491   -4.7379    0.0000 H   0  0  0  0  0  0  0  0  0  0  0  0
  1  2  1  0
  2  3  1  0
  2  4  1  6
  4  5  1  0
  5  6  1  0
  6  7  1  0
  1  8  2  0
  1  9  1  0
  9 10  1  0
 10 11  1  0
 11 12  1  1
 11 13  1  0
 13 14  2  0
 13 15  1  0
 15 16  1  0
 16 17  1  0
 16 18  1  6
 17 19  1  0
 17 20  2  0
 19 21  1  0
 21 22  1  6
 21 23  1  0
 22 24  1  0
 24 25  2  0
 25 26  1  0
 26 27  2  0
 27 28  1  0
 28 29  2  0
 29 24  1  0
 23 30  2  0
 23 35  1  0
  3 31  1  0
 32 31  1  0
 31 33  2  0
 32 34  1  0
 32 35  1  0
 34 36  1  6
 34 37  1  0
 37 38  1  0
 12 39  1  0
 39 40  1  0
 39 41  2  0
 40 42  1  6
 40 43  1  0
 43 44  1  6
 43 45  1  0
 42 46  1  0
 46 47  1  0
 46 48  2  0
 47 49  1  6
 47 50  1  0
 50 51  1  0
 49 52  1  0
 52 53  1  0
 52 54  2  0
 53 55  1  0
 53 56  1  1
 55 57  1  0
 57 58  2  0
 58 59  1  0
 59 60  2  0
 60 61  1  0
 61 62  2  0
 62 57  1  0
 60 63  1  0
 32 64  1  1
M  END

> <chembl_id>
CHEMBL2337555

> <chembl_pref_name>
None

$$$$

     RDKit          2D

 36 37  0  0  0  0  0  0  0  0999 V2000
   -2.6625  -24.5583    0.0000 C   0  0  0  0  0  0  0  0  0  0  0  0
   -1.2385  -24.5583    0.0000 N   0  0  0  0  0  0  0  0  0  0  0  0
   -1.9505  -24.1417    0.0000 C   0  0  0  0  0  0  0  0  0  0  0  0
   -3.3782  -24.1479    0.0000 O   0  0  0  0  0  0  0  0  0  0  0  0
   -1.9505  -23.3167    0.0000 C   0  0  0  0  0  0  0  0  0  0  0  0
   -2.6650  -22.9042    0.0000 C   0  0  0  0  0  0  0  0  0  0  0  0
   -2.6605  -22.0781    0.0000 C   0  0  0  0  0  0  0  0  0  0  0  0
   -3.3741  -21.6657    0.0000 C   0  0  0  0  0  0  0  0  0  0  0  0
   -4.0895  -22.0782    0.0000 C   0  0  0  0  0  0  0  0  0  0  0  0
   -4.0869  -22.9075    0.0000 C   0  0  0  0  0  0  0  0  0  0  0  0
   -3.3727  -23.3162    0.0000 C   0  0  0  0  0  0  0  0  0  0  0  0
   -0.5216  -24.1500    0.0000 C   0  0  0  0  0  0  0  0  0  0  0  0
    0.1905  -24.5667    0.0000 C   0  0  0  0  0  0  0  0  0  0  0  0
   -0.5168  -23.3250    0.0000 O   0  0  0  0  0  0  0  0  0  0  0  0
    0.1856  -25.3917    0.0000 N   0  0  0  0  0  0  0  0  0  0  0  0
    0.9073  -24.1584    0.0000 C   0  0  0  0  0  0  0  0  0  0  0  0
    0.9122  -23.3334    0.0000 C   0  0  0  0  0  0  0  0  0  0  0  0
    1.6290  -22.9251    0.0000 C   0  0  0  0  0  0  0  0  0  0  0  0
    0.2001  -22.9167    0.0000 C   0  0  0  0  0  0  0  0  0  0  0  0
    0.8977  -25.8084    0.0000 C   0  0  0  0  0  0  0  0  0  0  0  0
    0.8928  -26.6334    0.0000 C   0  0  0  0  0  0  0  0  0  0  0  0
    1.6145  -25.4001    0.0000 O   0  0  0  0  0  0  0  0  0  0  0  0
    0.1760  -27.0417    0.0000 N   0  0  0  0  0  0  0  0  0  0  0  0
   -0.5361  -26.6250    0.0000 C   0  0  0  0  0  0  0  0  0  0  0  0
   -1.2530  -27.0333    0.0000 C   0  0  0  0  0  0  0  0  0  0  0  0
   -0.5313  -25.8000    0.0000 O   0  0  0  0  0  0  0  0  0  0  0  0
   -1.9650  -26.6166    0.0000 N   0  0  0  0  0  0  0  0  0  0  0  0
   -2.6819  -27.0249    0.0000 C   0  0  0  0  0  0  0  0  0  0  0  0
   -3.3939  -26.6082    0.0000 C   0  0  0  0  0  0  0  0  0  0  0  0
   -2.6867  -27.8499    0.0000 O   0  0  0  0  0  0  0  0  0  0  0  0
   -3.3891  -25.7833    0.0000 C   0  0  0  0  0  0  0  0  0  0  0  0
   -2.6722  -25.3749    0.0000 S   0  0  0  0  0  0  0  0  0  0  0  0
   -4.1108  -27.0165    0.0000 N   0  0  0  0  0  0  0  0  0  0  0  0
   -4.8228  -26.5999    0.0000 C   0  0  0  0  0  0  0  0  0  0  0  0
   -5.5397  -27.0082    0.0000 C   0  0  0  0  0  0  0  0  0  0  0  0
   -4.8180  -25.7749    0.0000 O   0  0  0  0  0  0  0  0  0  0  0  0
  1  4  2  0
 17 18  1  0
  8  9  2  0
 17 19  1  0
 15 20  1  0
  9 10  1  0
 20 21  1  0
  3  5  1  6
 20 22  2  0
 10 11  2  0
 21 23  1  0
 11  6  1  0
 23 24  1  0
  1  3  1  0
 24 25  1  0
  2 12  1  0
 24 26  2  0
  5  6  1  0
 25 27  1  0
 12 13  1  0
 27 28  1  0
  2  3  1  0
 29 28  1  0
 12 14  2  0
 28 30  2  0
  6  7  2  0
 29 31  1  0
 13 15  1  0
 31 32  1  0
  1 32  1  0
 29 33  1  1
 13 16  1  6
 33 34  1  0
  7  8  1  0
 34 35  1  0
 16 17  1  0
 34 36  2  0
M  END

> <chembl_id>
CHEMBL1824147

> <chembl_pref_name>
None

$$$$
 
     RDKit          2D

 56 58  0  0  0  0  0  0  0  0999 V2000
   34.3776   -5.5097    0.0000 N   0  0  0  0  0  0  0  0  0  0  0  0
   35.0620   -5.9100    0.0000 C   0  0  0  0  0  0  0  0  0  0  0  0
   35.7504   -7.0945    0.0000 O   0  0  0  0  0  0  0  0  0  0  0  0
   35.0620   -6.6983    0.0000 C   0  0  0  0  0  0  0  0  0  0  0  0
   35.7504   -5.5097    0.0000 C   0  0  0  0  0  0  0  0  0  0  0  0
   34.3776   -7.0945    0.0000 N   0  0  0  0  0  0  0  0  0  0  0  0
   34.3776   -7.8828    0.0000 C   0  0  0  0  0  0  0  0  0  0  0  0
   33.0090   -7.8828    0.0000 O   0  0  0  0  0  0  0  0  0  0  0  0
   33.6933   -8.2832    0.0000 C   0  0  0  0  0  0  0  0  0  0  0  0
   33.6933   -9.0715    0.0000 N   0  0  0  0  0  0  0  0  0  0  0  0
   33.0090   -9.4718    0.0000 C   0  0  0  0  0  0  0  0  0  0  0  0
   33.6933  -10.6563    0.0000 O   0  0  0  0  0  0  0  0  0  0  0  0
   33.0090  -10.2601    0.0000 C   0  0  0  0  0  0  0  0  0  0  0  0
   32.3164   -9.0715    0.0000 C   0  0  0  0  0  0  0  0  0  0  0  0
   32.3164   -8.2832    0.0000 S   0  0  0  0  0  0  0  0  0  0  0  0
   32.3164  -10.6563    0.0000 N   0  0  0  0  0  0  0  0  0  0  0  0
   32.3164  -11.4446    0.0000 C   0  0  0  0  0  0  0  0  0  0  0  0
   31.6362  -12.6333    0.0000 O   0  0  0  0  0  0  0  0  0  0  0  0
   31.6362  -11.8450    0.0000 C   0  0  0  0  0  0  0  0  0  0  0  0
   33.0090  -11.8450    0.0000 C   0  0  0  0  0  0  0  0  0  0  0  0
   30.9519  -11.4446    0.0000 N   0  0  0  0  0  0  0  0  0  0  0  0
   30.2634  -11.8450    0.0000 C   0  0  0  0  0  0  0  0  0  0  0  0
   28.8948  -11.8450    0.0000 O   0  0  0  0  0  0  0  0  0  0  0  0
   29.5791  -11.4446    0.0000 C   0  0  0  0  0  0  0  0  0  0  0  0
   30.2634  -12.6333    0.0000 C   0  0  0  0  0  0  0  0  0  0  0  0
   29.5791  -10.6563    0.0000 N   0  0  0  0  0  0  0  0  0  0  0  0
   28.8948  -10.2601    0.0000 C   0  0  0  0  0  0  0  0  0  0  0  0
   28.2063   -9.0715    0.0000 O   0  0  0  0  0  0  0  0  0  0  0  0
   28.8948   -9.4718    0.0000 C   0  0  0  0  0  0  0  0  0  0  0  0
   28.2063  -10.6563    0.0000 C   0  0  0  0  0  0  0  0  0  0  0  0
   29.5791   -9.0715    0.0000 N   0  0  0  0  0  0  0  0  0  0  0  0
   29.5791   -8.2832    0.0000 C   0  0  0  0  0  0  0  0  0  0  0  0
   30.2634   -7.0945    0.0000 O   0  0  0  0  0  0  0  0  0  0  0  0
   30.2634   -7.8828    0.0000 C   0  0  0  0  0  0  0  0  0  0  0  0
   28.8948   -7.8828    0.0000 C   0  0  0  0  0  0  0  0  0  0  0  0
   35.7485   -4.7007    0.0000 O   0  0  0  0  0  0  0  0  0  0  0  0
   27.5068  -10.2520    0.0000 C   0  0  0  0  0  0  0  0  0  0  0  0
   28.8988   -7.0739    0.0000 C   0  0  0  0  0  0  0  0  0  0  0  0
   29.5992   -6.6768    0.0000 C   0  0  0  0  0  0  0  0  0  0  0  0
   29.6036   -5.8686    0.0000 C   0  0  0  0  0  0  0  0  0  0  0  0
   28.9056   -5.4598    0.0000 C   0  0  0  0  0  0  0  0  0  0  0  0
   28.1977   -5.8651    0.0000 C   0  0  0  0  0  0  0  0  0  0  0  0
   28.1967   -6.6720    0.0000 C   0  0  0  0  0  0  0  0  0  0  0  0
   35.0865   -8.2894    0.0000 C   0  0  0  0  0  0  0  0  0  0  0  0
   27.5086   -9.4430    0.0000 C   0  0  0  0  0  0  0  0  0  0  0  0
   26.8099   -9.0388    0.0000 C   0  0  0  0  0  0  0  0  0  0  0  0
   26.1090   -9.4426    0.0000 C   0  0  0  0  0  0  0  0  0  0  0  0
   26.1113  -10.2547    0.0000 C   0  0  0  0  0  0  0  0  0  0  0  0
   26.8106  -10.6553    0.0000 C   0  0  0  0  0  0  0  0  0  0  0  0
   25.4009   -9.0346    0.0000 O   0  0  0  0  0  0  0  0  0  0  0  0
   34.3823   -4.6925    0.0000 C   0  0  0  0  0  0  0  0  0  0  0  0
   33.6770   -4.2799    0.0000 C   0  0  0  0  0  0  0  0  0  0  0  0
   35.0924   -4.2880    0.0000 O   0  0  0  0  0  0  0  0  0  0  0  0
   33.6816   -3.4627    0.0000 C   0  0  0  0  0  0  0  0  0  0  0  0
   32.9669   -4.6844    0.0000 N   0  0  0  0  0  0  0  0  0  0  0  0
   33.0086  -12.6622    0.0000 O   0  0  0  0  0  0  0  0  0  0  0  0
  4  6  1  0
  9 10  1  0
 13 16  1  0
 19 21  1  0
 24 26  1  0
 29 31  1  0
  2  1  1  1
  2  4  1  0
  4  3  2  0
  2  5  1  0
  7  6  1  1
  7  9  1  0
  9  8  2  0
 10 11  1  0
 11 13  1  0
 13 12  2  0
 11 14  1  6
 14 15  1  0
 17 16  1  1
 17 19  1  0
 19 18  2  0
 17 20  1  0
 22 21  1  1
 22 24  1  0
 24 23  2  0
 22 25  1  0
 27 26  1  1
 27 29  1  0
 29 28  2  0
 27 30  1  0
 32 31  1  1
 32 34  1  0
 34 33  2  0
 32 35  1  0
 34 15  1  0
  5 36  1  0
 30 37  1  0
 35 38  1  0
 38 39  2  0
 39 40  1  0
 40 41  2  0
 41 42  1  0
 42 43  2  0
 43 38  1  0
  7 44  1  0
 37 45  2  0
 45 46  1  0
 46 47  2  0
 47 48  1  0
 48 49  2  0
 49 37  1  0
 47 50  1  0
  1 51  1  0
 51 52  1  0
 51 53  2  0
 52 54  1  1
 52 55  1  0
 20 56  1  0
M  END

> <chembl_id>
CHEMBL4464106

> <chembl_pref_name>
None

$$$$
 
     RDKit          2D

 71 75  0  0  0  0  0  0  0  0999 V2000
    9.9243   -7.9366    0.0000 C   0  0  0  0  0  0  0  0  0  0  0  0
   10.6325   -7.5256    0.0000 C   0  0  0  0  0  0  0  0  0  0  0  0
   11.3407   -7.9366    0.0000 N   0  0  0  0  0  0  0  0  0  0  0  0
   10.6325   -6.7075    0.0000 O   0  0  0  0  0  0  0  0  0  0  0  0
   12.0450   -7.5256    0.0000 C   0  0  0  0  0  0  0  0  0  0  0  0
   12.7528   -7.9375    0.0000 C   0  0  0  0  0  0  0  0  0  0  0  0
   12.0387   -6.7075    0.0000 C   0  0  0  0  0  0  0  0  0  0  0  0
   12.7550   -6.3022    0.0000 S   0  0  0  0  0  0  0  0  0  0  0  0
   13.4691   -5.0783    0.0000 C   0  0  0  0  0  0  0  0  0  0  0  0
   12.7557   -5.4853    0.0000 C   0  0  0  0  0  0  0  0  0  0  0  0
   14.1760   -5.4937    0.0000 N   0  0  0  0  0  0  0  0  0  0  0  0
   15.5945   -5.5095    0.0000 C   0  0  0  0  0  0  0  0  0  0  0  0
   14.8856   -5.0880    0.0000 C   0  0  0  0  0  0  0  0  0  0  0  0
   13.4565   -7.5295    0.0000 N   0  0  0  0  0  0  0  0  0  0  0  0
   14.1564   -7.9419    0.0000 C   0  0  0  0  0  0  0  0  0  0  0  0
   14.8653   -7.5374    0.0000 C   0  0  0  0  0  0  0  0  0  0  0  0
   15.5639   -7.9496    0.0000 N   0  0  0  0  0  0  0  0  0  0  0  0
   16.2767   -7.5476    0.0000 C   0  0  0  0  0  0  0  0  0  0  0  0
   16.2826   -6.7330    0.0000 C   0  0  0  0  0  0  0  0  0  0  0  0
   15.5756   -6.3204    0.0000 N   0  0  0  0  0  0  0  0  0  0  0  0
   12.0450   -5.0714    0.0000 O   0  0  0  0  0  0  0  0  0  0  0  0
   14.8936   -4.2699    0.0000 O   0  0  0  0  0  0  0  0  0  0  0  0
   16.9941   -6.3318    0.0000 O   0  0  0  0  0  0  0  0  0  0  0  0
   14.8714   -6.7194    0.0000 O   0  0  0  0  0  0  0  0  0  0  0  0
   12.7511   -8.7556    0.0000 O   0  0  0  0  0  0  0  0  0  0  0  0
   16.9774   -7.9647    0.0000 C   0  0  0  0  0  0  0  0  0  0  0  0
   16.9704   -8.7827    0.0000 C   0  0  0  0  0  0  0  0  0  0  0  0
   13.4744   -4.2602    0.0000 C   0  0  0  0  0  0  0  0  0  0  0  0
   12.7688   -3.8486    0.0000 C   0  0  0  0  0  0  0  0  0  0  0  0
   16.3090   -5.1096    0.0000 C   0  0  0  0  0  0  0  0  0  0  0  0
   16.3218   -4.2916    0.0000 C   0  0  0  0  0  0  0  0  0  0  0  0
   17.0363   -3.8957    0.0000 C   0  0  0  0  0  0  0  0  0  0  0  0
   15.6245   -3.8727    0.0000 C   0  0  0  0  0  0  0  0  0  0  0  0
   12.7725   -3.0314    0.0000 C   0  0  0  0  0  0  0  0  0  0  0  0
   12.0593   -4.2540    0.0000 C   0  0  0  0  0  0  0  0  0  0  0  0
   16.2565   -9.1845    0.0000 C   0  0  0  0  0  0  0  0  0  0  0  0
   16.2492  -10.0018    0.0000 C   0  0  0  0  0  0  0  0  0  0  0  0
   16.9547  -10.4177    0.0000 C   0  0  0  0  0  0  0  0  0  0  0  0
   17.6690  -10.0104    0.0000 C   0  0  0  0  0  0  0  0  0  0  0  0
   17.6728   -9.1944    0.0000 C   0  0  0  0  0  0  0  0  0  0  0  0
   14.1507   -8.7590    0.0000 C   0  0  0  0  0  0  0  0  0  0  0  0
   14.8555   -9.1726    0.0000 C   0  0  0  0  0  0  0  0  0  0  0  0
   14.8498   -9.9897    0.0000 O   0  0  0  0  0  0  0  0  0  0  0  0
   15.5661   -8.7689    0.0000 O   0  0  0  0  0  0  0  0  0  0  0  0
    9.2157   -7.5296    0.0000 N   0  0  0  0  0  0  0  0  0  0  0  0
    9.9262   -8.7538    0.0000 C   0  0  0  0  0  0  0  0  0  0  0  0
    9.2194   -9.1640    0.0000 C   0  0  0  0  0  0  0  0  0  0  0  0
    8.5121   -8.7556    0.0000 C   0  0  0  0  0  0  0  0  0  0  0  0
    7.8058   -9.1651    0.0000 C   0  0  0  0  0  0  0  0  0  0  0  0
    7.8073   -9.9832    0.0000 C   0  0  0  0  0  0  0  0  0  0  0  0
    8.5209  -10.3900    0.0000 C   0  0  0  0  0  0  0  0  0  0  0  0
    9.2243   -9.9782    0.0000 C   0  0  0  0  0  0  0  0  0  0  0  0
    9.2138   -6.7124    0.0000 C   0  0  0  0  0  0  0  0  0  0  0  0
    8.5052   -6.3055    0.0000 C   0  0  0  0  0  0  0  0  0  0  0  0
    9.9206   -6.3022    0.0000 O   0  0  0  0  0  0  0  0  0  0  0  0
    8.4148   -5.4967    0.0000 C   0  0  0  0  0  0  0  0  0  0  0  0
    7.6151   -5.3287    0.0000 C   0  0  0  0  0  0  0  0  0  0  0  0
    7.2081   -6.0373    0.0000 C   0  0  0  0  0  0  0  0  0  0  0  0
    7.7563   -6.6433    0.0000 N   0  0  0  0  0  0  0  0  0  0  0  0
    7.7509   -7.4579    0.0000 C   0  0  0  0  0  0  0  0  0  0  0  0
    7.0405   -7.8618    0.0000 C   0  0  0  0  0  0  0  0  0  0  0  0
    8.4559   -7.8712    0.0000 O   0  0  0  0  0  0  0  0  0  0  0  0
    6.3355   -7.4486    0.0000 C   0  0  0  0  0  0  0  0  0  0  0  0
    7.0351   -8.6790    0.0000 N   0  0  0  0  0  0  0  0  0  0  0  0
    5.6252   -7.8525    0.0000 C   0  0  0  0  0  0  0  0  0  0  0  0
    4.9226   -7.4378    0.0000 C   0  0  0  0  0  0  0  0  0  0  0  0
    4.2127   -7.8410    0.0000 C   0  0  0  0  0  0  0  0  0  0  0  0
    4.2069   -8.6590    0.0000 C   0  0  0  0  0  0  0  0  0  0  0  0
    4.9169   -9.0722    0.0000 C   0  0  0  0  0  0  0  0  0  0  0  0
    5.6239   -8.6666    0.0000 C   0  0  0  0  0  0  0  0  0  0  0  0
    3.4970   -9.0639    0.0000 O   0  0  0  0  0  0  0  0  0  0  0  0
  1  2  1  0
  2  3  1  0
  2  4  2  0
  5  3  1  0
  5  6  1  0
  5  7  1  1
  6 14  1  0
  8  7  1  0
  8 10  1  0
 11  9  1  0
  9 10  1  0
 11 13  1  0
 12 20  1  0
 12 13  1  0
 14 15  1  0
 15 16  1  0
 16 17  1  0
 17 18  1  0
 18 19  1  0
 19 20  1  0
 10 21  2  0
 13 22  2  0
 19 23  2  0
 16 24  2  0
  6 25  2  0
 18 26  1  1
 26 27  1  0
  9 28  1  1
 28 29  1  0
 12 30  1  1
 30 31  1  0
 31 32  1  0
 31 33  1  0
 29 34  1  0
 29 35  1  0
 27 36  2  0
 36 37  1  0
 37 38  2  0
 38 39  1  0
 39 40  2  0
 40 27  1  0
 15 41  1  1
 41 42  1  0
 42 43  2  0
 42 44  1  0
  1 45  1  0
  1 46  1  1
 46 47  1  0
 47 48  2  0
 48 49  1  0
 49 50  2  0
 50 51  1  0
 51 52  2  0
 52 47  1  0
 45 53  1  0
 54 53  1  1
 53 55  2  0
 54 56  1  0
 56 57  1  0
 57 58  1  0
 58 59  1  0
 59 54  1  0
 59 60  1  0
 60 61  1  0
 60 62  2  0
 61 63  1  6
 61 64  1  0
 63 65  1  0
 65 66  2  0
 66 67  1  0
 67 68  2  0
 68 69  1  0
 69 70  2  0
 70 65  1  0
 68 71  1  0
M  END

> <chembl_id>
CHEMBL4527510

> <chembl_pref_name>
None

$$$$

     RDKit          2D

 11 10  0  0  0  0  0  0  0  0999 V2000
    2.1417   -2.8417    0.0000 C   0  0  0  0  0  0  0  0  0  0  0  0
    5.6542   -3.5875    0.0000 C   0  0  0  0  0  0  0  0  0  0  0  0
    1.3667   -3.9750    0.0000 N   0  0  0  0  0  0  0  0  0  0  0  0
    2.1417   -2.0417    0.0000 O   0  0  0  0  0  0  0  0  0  0  0  0
    5.5792   -4.4042    0.0000 O   0  0  0  0  0  0  0  0  0  0  0  0
    2.8125   -3.3250    0.0000 N   0  0  0  0  0  0  0  0  0  0  0  0
    4.9875   -3.1125    0.0000 S   0  0  0  0  0  0  0  0  0  0  0  0
    1.3792   -3.1125    0.0000 C   0  0  0  0  0  0  0  0  0  0  0  0
    6.4042   -3.2417    0.0000 C   0  0  0  0  0  0  0  0  0  0  0  0
    3.5625   -2.9792    0.0000 C   0  0  0  0  0  0  0  0  0  0  0  0
    4.2375   -3.4542    0.0000 C   0  0  0  0  0  0  0  0  0  0  0  0
  2  7  1  0
  3  8  1  0
  4  1  2  0
  5  2  2  0
  6  1  1  0
  7 11  1  0
  8  1  1  0
  9  2  1  0
 10  6  1  0
 11 10  1  0
M  END

> <chembl_id>
CHEMBL320869

> <chembl_pref_name>
None

$$$$

     RDKit          2D

 23 21  0  0  0  0  0  0  0  0999 V2000
   21.9998    0.3750    0.0000 Cl  0  0  0  0  0  0  0  0  0  0  0  0
   14.2999    0.7500    0.0000 C   0  0  0  0  0  0  0  0  0  0  0  0
   12.9999    0.0000    0.0000 C   0  0  0  0  0  0  0  0  0  0  0  0
   11.6999    0.7500    0.0000 C   0  0  0  0  0  0  0  0  0  0  0  0
   10.3999    0.0000    0.0000 C   0  0  0  0  0  0  0  0  0  0  0  0
   12.9999   -1.2000    0.0000 N   0  0  0  0  0  0  0  0  0  0  0  0
   14.2999    1.9500    0.0000 O   0  0  0  0  0  0  0  0  0  0  0  0
   15.5999    0.0000    0.0000 O   0  0  0  0  0  0  0  0  0  0  0  0
   16.8999    0.7500    0.0000 C   0  0  0  0  0  0  0  0  0  0  0  0
   18.1999    0.0000    0.0000 C   0  0  0  0  0  0  0  0  0  0  0  0
    9.0999    0.7500    0.0000 C   0  0  0  0  0  0  0  0  0  0  0  0
    7.7999    0.0000    0.0000 N   0  0  0  0  0  0  0  0  0  0  0  0
    9.0999    1.9500    0.0000 O   0  0  0  0  0  0  0  0  0  0  0  0
    6.5000    0.7500    0.0000 C   0  0  0  0  0  0  0  0  0  0  0  0
    5.2000    0.0000    0.0000 C   0  0  0  0  0  0  0  0  0  0  0  0
    3.9000    0.7500    0.0000 S   0  0  0  0  0  0  0  0  0  0  0  0
    2.6000    0.0000    0.0000 C   0  0  0  0  0  0  0  0  0  0  0  0
    1.3000    0.7500    0.0000 C   0  0  0  0  0  0  0  0  0  0  0  0
    2.6000   -1.2000    0.0000 O   0  0  0  0  0  0  0  0  0  0  0  0
    0.2606    0.1503    0.0000 C   0  0  0  0  0  0  0  0  0  0  0  0
    1.3000    1.9500    0.0000 C   0  0  0  0  0  0  0  0  0  0  0  0
    0.2609    1.3502    0.0000 C   0  0  0  0  0  0  0  0  0  0  0  0
   19.2393    0.5997    0.0000 C   0  0  0  0  0  0  0  0  0  0  0  0
  2  3  1  0
  3  4  1  0
  4  5  1  0
  3  6  1  1
  2  7  2  0
  9 10  1  0
  8  9  1  0
  2  8  1  0
 11 12  1  0
 11 13  2  0
 14 15  1  0
 17 18  1  0
 17 19  2  0
 16 17  1  0
 15 16  1  0
 12 14  1  0
  5 11  1  0
 18 20  1  0
 18 21  1  0
 18 22  1  0
 10 23  1  0
M  END

> <chembl_id>
CHEMBL3764160

> <chembl_pref_name>
None

$$$$

     RDKit          2D

 65 69  0  0  0  0  0  0  0  0999 V2000
   15.6577  -13.1504    0.0000 C   0  0  0  0  0  0  0  0  0  0  0  0
   16.3648  -13.5599    0.0000 C   0  0  0  0  0  0  0  0  0  0  0  0
   15.6587  -12.3332    0.0000 O   0  0  0  0  0  0  0  0  0  0  0  0
   16.3638  -14.3771    0.0000 O   0  0  0  0  0  0  0  0  0  0  0  0
   17.0731  -13.1523    0.0000 C   0  0  0  0  0  0  0  0  0  0  0  0
   17.7803  -13.5618    0.0000 C   0  0  0  0  0  0  0  0  0  0  0  0
   17.6480  -12.5674    0.0000 C   0  0  0  0  0  0  0  0  0  0  0  0
   16.4883  -12.5674    0.0000 C   0  0  0  0  0  0  0  0  0  0  0  0
   18.4885  -13.1541    0.0000 O   0  0  0  0  0  0  0  0  0  0  0  0
   19.1957  -13.5636    0.0000 P   0  0  0  0  0  0  0  0  0  0  0  0
   19.9039  -13.1559    0.0000 O   0  0  0  0  0  0  0  0  0  0  0  0
   18.7789  -14.2678    0.0000 O   0  0  0  0  0  0  0  0  0  0  0  0
   19.7694  -14.1399    0.0000 O   0  0  0  0  0  0  0  0  0  0  0  0
   20.6111  -13.5654    0.0000 P   0  0  0  0  0  0  0  0  0  0  0  0
   20.3926  -14.3504    0.0000 O   0  0  0  0  0  0  0  0  0  0  0  0
   21.0117  -14.2678    0.0000 O   0  0  0  0  0  0  0  0  0  0  0  0
   21.3130  -13.1494    0.0000 O   0  0  0  0  0  0  0  0  0  0  0  0
   22.0253  -13.5498    0.0000 C   0  0  0  0  0  0  0  0  0  0  0  0
   22.6686  -13.0455    0.0000 C   0  0  0  0  0  0  0  0  0  0  0  0
   23.4505  -13.2681    0.0000 C   0  0  0  0  0  0  0  0  0  0  0  0
   23.9065  -12.5900    0.0000 C   0  0  0  0  0  0  0  0  0  0  0  0
   23.4024  -11.9467    0.0000 C   0  0  0  0  0  0  0  0  0  0  0  0
   22.6350  -12.2274    0.0000 O   0  0  0  0  0  0  0  0  0  0  0  0
   23.7312  -14.0356    0.0000 O   0  0  0  0  0  0  0  0  0  0  0  0
   24.7231  -12.5603    0.0000 O   0  0  0  0  0  0  0  0  0  0  0  0
   23.6406  -11.1660    0.0000 N   0  0  0  0  0  0  0  0  0  0  0  0
   23.6121   -9.8451    0.0000 N   0  0  0  0  0  0  0  0  0  0  0  0
   23.1474  -10.5185    0.0000 C   0  0  0  0  0  0  0  0  0  0  0  0
   24.3959  -10.0803    0.0000 C   0  0  0  0  0  0  0  0  0  0  0  0
   24.4100  -10.8982    0.0000 C   0  0  0  0  0  0  0  0  0  0  0  0
   25.1243  -11.2932    0.0000 N   0  0  0  0  0  0  0  0  0  0  0  0
   25.8249  -10.8714    0.0000 N   0  0  0  0  0  0  0  0  0  0  0  0
   25.8068  -10.0504    0.0000 C   0  0  0  0  0  0  0  0  0  0  0  0
   25.0920   -9.6591    0.0000 C   0  0  0  0  0  0  0  0  0  0  0  0
   25.0744   -8.8421    0.0000 N   0  0  0  0  0  0  0  0  0  0  0  0
   23.2069  -14.6624    0.0000 P   0  0  0  0  0  0  0  0  0  0  0  0
   23.6077  -15.3657    0.0000 O   0  0  0  0  0  0  0  0  0  0  0  0
   22.6213  -14.0780    0.0000 O   0  0  0  0  0  0  0  0  0  0  0  0
   22.6213  -15.2377    0.0000 O   0  0  0  0  0  0  0  0  0  0  0  0
    9.9997  -13.1427    0.0000 S   0  0  0  0  0  0  0  0  0  0  0  0
   10.7069  -13.5522    0.0000 C   0  0  0  0  0  0  0  0  0  0  0  0
   11.4151  -13.1445    0.0000 C   0  0  0  0  0  0  0  0  0  0  0  0
   12.1223  -13.5540    0.0000 N   0  0  0  0  0  0  0  0  0  0  0  0
   12.8305  -13.1463    0.0000 C   0  0  0  0  0  0  0  0  0  0  0  0
   13.5377  -13.5558    0.0000 C   0  0  0  0  0  0  0  0  0  0  0  0
   12.8315  -12.3291    0.0000 O   0  0  0  0  0  0  0  0  0  0  0  0
   14.2459  -13.1481    0.0000 C   0  0  0  0  0  0  0  0  0  0  0  0
   14.9531  -13.5576    0.0000 N   0  0  0  0  0  0  0  0  0  0  0  0
    9.2904  -13.5497    0.0000 C   0  0  0  0  0  0  0  0  0  0  0  0
   10.0787  -14.5774    0.0000 C   0  0  0  0  0  0  0  0  0  0  0  0
    9.2904  -14.3669    0.0000 C   0  0  0  0  0  0  0  0  0  0  0  0
    9.5023  -15.1548    0.0000 O   0  0  0  0  0  0  0  0  0  0  0  0
    5.0478  -14.3811    0.0000 C   0  0  0  0  0  0  0  0  0  0  0  0
    5.7568  -14.7875    0.0000 O   0  0  0  0  0  0  0  0  0  0  0  0
    6.4632  -14.3766    0.0000 C   0  0  0  0  0  0  0  0  0  0  0  0
    7.1722  -14.7829    0.0000 C   0  0  0  0  0  0  0  0  0  0  0  0
    7.8786  -14.3721    0.0000 C   0  0  0  0  0  0  0  0  0  0  0  0
    8.5876  -14.7784    0.0000 C   0  0  0  0  0  0  0  0  0  0  0  0
    8.5843  -13.1409    0.0000 O   0  0  0  0  0  0  0  0  0  0  0  0
    5.0482  -13.5647    0.0000 C   0  0  0  0  0  0  0  0  0  0  0  0
    4.3400  -13.1585    0.0000 C   0  0  0  0  0  0  0  0  0  0  0  0
    3.6326  -13.5694    0.0000 C   0  0  0  0  0  0  0  0  0  0  0  0
    3.6379  -14.3908    0.0000 C   0  0  0  0  0  0  0  0  0  0  0  0
    4.3466  -14.7933    0.0000 C   0  0  0  0  0  0  0  0  0  0  0  0
    2.9329  -14.8041    0.0000 Cl  0  0  0  0  0  0  0  0  0  0  0  0
  1  2  1  0
  1  3  2  0
  2  4  1  1
  2  5  1  0
  5  6  1  0
  5  7  1  0
  5  8  1  0
  6  9  1  0
  9 10  1  0
 10 11  1  0
 10 12  2  0
 10 13  1  0
 11 14  1  0
 14 15  2  0
 14 16  1  0
 14 17  1  0
 17 18  1  0
 19 18  1  1
 19 20  1  0
 20 21  1  0
 21 22  1  0
 22 23  1  0
 23 19  1  0
 20 24  1  6
 21 25  1  6
 26 30  1  0
 29 27  1  0
 27 28  2  0
 28 26  1  0
 22 26  1  1
 29 30  2  0
 30 31  1  0
 31 32  2  0
 32 33  1  0
 33 34  2  0
 34 29  1  0
 34 35  1  0
 24 36  1  0
 36 37  1  0
 36 38  2  0
 36 39  1  0
 49 40  1  0
 40 41  1  0
 41 42  1  0
 42 43  1  0
 43 44  1  0
 44 45  1  0
 44 46  2  0
 45 47  1  0
 47 48  1  0
 48  1  1  0
 51 50  1  0
 52 51  1  0
 50 52  1  0
 53 54  1  0
 54 55  1  0
 55 56  1  0
 56 57  1  0
 57 58  1  0
 51 58  1  0
 51 49  1  0
 49 59  2  0
 53 60  2  0
 60 61  1  0
 61 62  2  0
 62 63  1  0
 63 64  2  0
 64 53  1  0
 63 65  1  0
M  END

> <chembl_id>
CHEMBL2216793

> <chembl_pref_name>
None

$$$$

     RDKit          2D

 62 66  0  0  0  0  0  0  0  0999 V2000
   12.6800  -19.3155    0.0000 S   0  0  0  0  0  0  0  0  0  0  0  0
   16.0063  -22.1368    0.0000 N   0  0  0  0  0  0  0  0  0  0  0  0
   16.0063  -22.9495    0.0000 C   0  0  0  0  0  0  0  0  0  0  0  0
   15.2384  -23.2456    0.0000 C   0  0  0  0  0  0  0  0  0  0  0  0
   15.3041  -24.0491    0.0000 N   0  0  0  0  0  0  0  0  0  0  0  0
   14.5725  -24.4240    0.0000 C   0  0  0  0  0  0  0  0  0  0  0  0
   13.9244  -23.9032    0.0000 C   0  0  0  0  0  0  0  0  0  0  0  0
   13.2610  -24.3956    0.0000 N   0  0  0  0  0  0  0  0  0  0  0  0
   12.5378  -24.0047    0.0000 C   0  0  0  0  0  0  0  0  0  0  0  0
   12.6100  -23.1959    0.0000 C   0  0  0  0  0  0  0  0  0  0  0  0
   11.8414  -22.8960    0.0000 N   0  0  0  0  0  0  0  0  0  0  0  0
   11.8405  -22.0830    0.0000 C   0  0  0  0  0  0  0  0  0  0  0  0
   12.6089  -21.7938    0.0000 C   0  0  0  0  0  0  0  0  0  0  0  0
   12.5427  -20.9859    0.0000 N   0  0  0  0  0  0  0  0  0  0  0  0
   13.2665  -20.6136    0.0000 C   0  0  0  0  0  0  0  0  0  0  0  0
   13.9144  -21.1308    0.0000 C   0  0  0  0  0  0  0  0  0  0  0  0
   14.5803  -20.6285    0.0000 N   0  0  0  0  0  0  0  0  0  0  0  0
   15.3080  -21.0242    0.0000 C   0  0  0  0  0  0  0  0  0  0  0  0
   15.2359  -21.8329    0.0000 C   0  0  0  0  0  0  0  0  0  0  0  0
   13.9031  -21.9531    0.0000 O   0  0  0  0  0  0  0  0  0  0  0  0
   13.3038  -22.2337    0.0000 O   0  0  0  0  0  0  0  0  0  0  0  0
   13.3090  -22.7625    0.0000 O   0  0  0  0  0  0  0  0  0  0  0  0
   13.9402  -23.0809    0.0000 O   0  0  0  0  0  0  0  0  0  0  0  0
   14.5418  -22.8084    0.0000 O   0  0  0  0  0  0  0  0  0  0  0  0
   14.5360  -22.2650    0.0000 O   0  0  0  0  0  0  0  0  0  0  0  0
   14.5195  -19.8083    0.0000 C   0  0  0  0  0  0  0  0  0  0  0  0
   16.0330  -20.6358    0.0000 C   0  0  0  0  0  0  0  0  0  0  0  0
   16.7318  -21.0694    0.0000 C   0  0  0  0  0  0  0  0  0  0  0  0
   16.7032  -21.8912    0.0000 C   0  0  0  0  0  0  0  0  0  0  0  0
   17.4013  -22.3247    0.0000 C   0  0  0  0  0  0  0  0  0  0  0  0
   18.1271  -21.9363    0.0000 C   0  0  0  0  0  0  0  0  0  0  0  0
   18.1507  -21.1099    0.0000 C   0  0  0  0  0  0  0  0  0  0  0  0
   17.4519  -20.6802    0.0000 C   0  0  0  0  0  0  0  0  0  0  0  0
   13.3480  -19.7952    0.0000 C   0  0  0  0  0  0  0  0  0  0  0  0
   11.1640  -21.6155    0.0000 C   0  0  0  0  0  0  0  0  0  0  0  0
   11.7494  -24.6818    0.0000 C   0  0  0  0  0  0  0  0  0  0  0  0
   11.7882  -25.6959    0.0000 C   0  0  0  0  0  0  0  0  0  0  0  0
   13.3197  -25.2160    0.0000 C   0  0  0  0  0  0  0  0  0  0  0  0
   16.0228  -24.4490    0.0000 C   0  0  0  0  0  0  0  0  0  0  0  0
   15.9827  -25.1941    0.0000 C   0  0  0  0  0  0  0  0  0  0  0  0
   15.1466  -25.8246    0.0000 C   0  0  0  0  0  0  0  0  0  0  0  0
   10.9302  -26.2321    0.0000 C   0  0  0  0  0  0  0  0  0  0  0  0
   10.9686  -27.2451    0.0000 C   0  0  0  0  0  0  0  0  0  0  0  0
   11.8668  -27.7195    0.0000 C   0  0  0  0  0  0  0  0  0  0  0  0
   12.7282  -27.1733    0.0000 C   0  0  0  0  0  0  0  0  0  0  0  0
   12.6855  -26.1620    0.0000 C   0  0  0  0  0  0  0  0  0  0  0  0
   14.2908  -26.3096    0.0000 C   0  0  0  0  0  0  0  0  0  0  0  0
   14.2858  -27.2911    0.0000 C   0  0  0  0  0  0  0  0  0  0  0  0
   15.1350  -27.7871    0.0000 C   0  0  0  0  0  0  0  0  0  0  0  0
   15.9908  -27.2947    0.0000 C   0  0  0  0  0  0  0  0  0  0  0  0
   15.9916  -26.3148    0.0000 C   0  0  0  0  0  0  0  0  0  0  0  0
   13.6321  -27.6458    0.0000 O   0  0  0  0  0  0  0  0  0  0  0  0
   11.9072  -28.7345    0.0000 O   0  0  0  0  0  0  0  0  0  0  0  0
   16.6845  -23.4147    0.0000 C   0  0  0  0  0  0  0  0  0  0  0  0
   11.0482  -29.2769    0.0000 C   0  0  0  0  0  0  0  0  0  0  0  0
   18.8266  -22.3689    0.0000 O   0  0  0  0  0  0  0  0  0  0  0  0
   18.8016  -23.1910    0.0000 C   0  0  0  0  0  0  0  0  0  0  0  0
   12.7615  -18.4971    0.0000 C   0  0  0  0  0  0  0  0  0  0  0  0
   13.5111  -18.1575    0.0000 O   0  0  0  0  0  0  0  0  0  0  0  0
   12.0936  -18.0164    0.0000 C   0  0  0  0  0  0  0  0  0  0  0  0
   15.5724  -24.4371    0.0000 H   0  0  0  0  0  0  0  0  0  0  0  0
   11.6486  -23.5473    0.0000 H   0  0  0  0  0  0  0  0  0  0  0  0
 30 31  2  0
 14 15  1  0
 31 32  1  0
 15 16  1  0
 32 33  2  0
 33 28  1  0
 12 13  1  0
 15 34  1  1
 17 18  1  0
 12 35  1  6
 18 19  1  0
  9 36  1  0
 16 17  1  0
 36 37  1  0
  2 19  1  0
  8 38  1  0
  5 39  1  0
 16 20  2  0
  6 40  1  0
  2  3  1  0
 13 21  2  0
 37 42  2  0
  3  4  1  0
 42 43  1  0
 10 22  2  0
 43 44  2  0
  5  6  1  0
 44 45  1  0
  7 23  2  0
 45 46  2  0
 46 37  1  0
  6  7  1  0
 41 47  2  0
  4 24  2  0
 47 48  1  0
  7  8  1  0
 48 49  2  0
 19 25  2  0
 49 50  1  0
  4  5  1  0
 50 51  2  0
 51 41  1  0
 17 26  1  0
 45 52  1  0
 52 48  1  0
  9 10  1  0
 44 53  1  0
 18 27  1  1
  3 54  1  1
 10 11  1  0
 53 55  1  0
 27 28  1  0
 31 56  1  0
 11 12  1  0
 56 57  1  0
 34  1  1  0
 28 29  2  0
  1 58  1  0
  8  9  1  0
 29 30  1  0
 58 59  2  0
 58 60  1  0
 40 51  1  0
 13 14  1  0
  6 61  1  6
  9 62  1  6
M  END

> <chembl_id>
CHEMBL553420

> <chembl_pref_name>
None

$$$$

     RDKit          2D

 62 65  0  0  0  0  0  0  0  0999 V2000
    7.0461   -6.2297    0.0000 C   0  0  0  0  0  0  0  0  0  0  0  0
    6.3253   -5.8213    0.0000 C   0  0  0  0  0  0  0  0  0  0  0  0
    5.6127   -6.2421    0.0000 C   0  0  0  0  0  0  0  0  0  0  0  0
    7.0502   -7.0547    0.0000 O   0  0  0  0  0  0  0  0  0  0  0  0
    4.8836   -5.8213    0.0000 C   0  0  0  0  0  0  0  0  0  0  0  0
    5.6127   -7.0671    0.0000 C   0  0  0  0  0  0  0  0  0  0  0  0
    7.7710   -5.8171    0.0000 S   0  0  0  0  0  0  0  0  0  0  0  0
    4.1753   -7.0671    0.0000 C   0  0  0  0  0  0  0  0  0  0  0  0
    4.8836   -7.4838    0.0000 C   0  0  0  0  0  0  0  0  0  0  0  0
    4.1753   -6.2421    0.0000 C   0  0  0  0  0  0  0  0  0  0  0  0
    3.4503   -7.4796    0.0000 C   0  0  0  0  0  0  0  0  0  0  0  0
    6.3127   -4.9963    0.0000 C   0  0  0  0  0  0  0  0  0  0  0  0
    2.7378   -7.0671    0.0000 C   0  0  0  0  0  0  0  0  0  0  0  0
    2.0253   -7.4796    0.0000 C   0  0  0  0  0  0  0  0  0  0  0  0
    2.7378   -6.2421    0.0000 C   0  0  0  0  0  0  0  0  0  0  0  0
   17.0410   -6.5268    0.0000 P   0  0  0  0  0  0  0  0  0  0  0  0
   16.6081   -7.2290    0.0000 O   0  0  0  0  0  0  0  0  0  0  0  0
   17.4328   -7.2528    0.0000 O   0  0  0  0  0  0  0  0  0  0  0  0
   18.1412   -8.7968    0.0000 P   0  0  0  0  0  0  0  0  0  0  0  0
   18.1344   -9.6219    0.0000 O   0  0  0  0  0  0  0  0  0  0  0  0
   18.8522   -9.2152    0.0000 O   0  0  0  0  0  0  0  0  0  0  0  0
   14.9123   -6.0539    0.0000 C   0  0  0  0  0  0  0  0  0  0  0  0
   15.3479   -5.3533    0.0000 C   0  0  0  0  0  0  0  0  0  0  0  0
   14.5233   -5.3264    0.0000 C   0  0  0  0  0  0  0  0  0  0  0  0
    8.4718   -6.2527    0.0000 C   0  0  0  0  0  0  0  0  0  0  0  0
    9.1993   -5.8637    0.0000 C   0  0  0  0  0  0  0  0  0  0  0  0
    9.8999   -6.2993    0.0000 N   0  0  0  0  0  0  0  0  0  0  0  0
   10.6275   -5.9103    0.0000 C   0  0  0  0  0  0  0  0  0  0  0  0
   11.3281   -6.3459    0.0000 C   0  0  0  0  0  0  0  0  0  0  0  0
   12.0556   -5.9569    0.0000 C   0  0  0  0  0  0  0  0  0  0  0  0
   10.6543   -5.0857    0.0000 O   0  0  0  0  0  0  0  0  0  0  0  0
   12.7563   -6.3924    0.0000 N   0  0  0  0  0  0  0  0  0  0  0  0
   13.4838   -6.0034    0.0000 C   0  0  0  0  0  0  0  0  0  0  0  0
   14.1844   -6.4390    0.0000 C   0  0  0  0  0  0  0  0  0  0  0  0
   13.5107   -5.1789    0.0000 O   0  0  0  0  0  0  0  0  0  0  0  0
   14.1576   -7.2635    0.0000 O   0  0  0  0  0  0  0  0  0  0  0  0
   15.6126   -6.4856    0.0000 C   0  0  0  0  0  0  0  0  0  0  0  0
   16.3387   -6.0939    0.0000 O   0  0  0  0  0  0  0  0  0  0  0  0
   17.7670   -6.1351    0.0000 O   0  0  0  0  0  0  0  0  0  0  0  0
   18.4693   -6.5680    0.0000 P   0  0  0  0  0  0  0  0  0  0  0  0
   19.1953   -6.1761    0.0000 O   0  0  0  0  0  0  0  0  0  0  0  0
   19.8977   -6.6090    0.0000 C   0  0  0  0  0  0  0  0  0  0  0  0
   19.8724   -7.4361    0.0000 C   0  0  0  0  0  0  0  0  0  0  0  0
   19.3843   -8.0925    0.0000 C   0  0  0  0  0  0  0  0  0  0  0  0
   19.8660   -8.7623    0.0000 C   0  0  0  0  0  0  0  0  0  0  0  0
   20.6519   -8.5112    0.0000 C   0  0  0  0  0  0  0  0  0  0  0  0
   20.6559   -7.6862    0.0000 O   0  0  0  0  0  0  0  0  0  0  0  0
   18.5594   -8.0858    0.0000 O   0  0  0  0  0  0  0  0  0  0  0  0
   19.6071   -9.5456    0.0000 O   0  0  0  0  0  0  0  0  0  0  0  0
   21.3170   -8.9994    0.0000 N   0  0  0  0  0  0  0  0  0  0  0  0
   22.5836   -9.4159    0.0000 N   0  0  0  0  0  0  0  0  0  0  0  0
   22.1019   -8.7462    0.0000 C   0  0  0  0  0  0  0  0  0  0  0  0
   22.0954  -10.0810    0.0000 C   0  0  0  0  0  0  0  0  0  0  0  0
   21.3162   -9.8204    0.0000 C   0  0  0  0  0  0  0  0  0  0  0  0
   20.7030  -10.3645    0.0000 N   0  0  0  0  0  0  0  0  0  0  0  0
   20.8678  -11.1691    0.0000 C   0  0  0  0  0  0  0  0  0  0  0  0
   21.6512  -11.4268    0.0000 N   0  0  0  0  0  0  0  0  0  0  0  0
   22.2611  -10.8811    0.0000 C   0  0  0  0  0  0  0  0  0  0  0  0
   23.0446  -11.1393    0.0000 N   0  0  0  0  0  0  0  0  0  0  0  0
   17.3162   -8.7902    0.0000 O   0  0  0  0  0  0  0  0  0  0  0  0
   18.0369   -7.2726    0.0000 O   0  0  0  0  0  0  0  0  0  0  0  0
   18.8615   -7.2964    0.0000 O   0  0  0  0  0  0  0  0  0  0  0  0
  2  1  1  0
  3  2  1  0
  4  1  2  0
  5  3  2  0
  6  3  1  0
  7  1  1  0
  8  9  1  0
  9  6  2  0
 10  5  1  0
 11  8  1  0
 12  2  1  0
 13 11  1  0
 14 13  1  0
 15 13  1  0
  8 10  2  0
 17 16  1  0
 16 18  2  0
 20 19  1  0
 19 21  2  0
 23 22  1  0
 22 24  1  0
  7 25  1  0
 25 26  1  0
 26 27  1  0
 27 28  1  0
 28 29  1  0
 29 30  1  0
 28 31  2  0
 30 32  1  0
 32 33  1  0
 33 34  1  0
 33 35  2  0
 34 36  1  1
 34 22  1  0
 22 37  1  0
 37 38  1  0
 38 16  1  0
 16 39  1  0
 39 40  1  0
 40 41  1  0
 41 42  1  0
 43 42  1  1
 43 44  1  0
 44 45  1  0
 45 46  1  0
 46 47  1  0
 47 43  1  0
 44 48  1  6
 45 49  1  6
 46 50  1  1
 50 54  1  0
 53 51  1  0
 51 52  2  0
 52 50  1  0
 53 54  2  0
 54 55  1  0
 55 56  2  0
 56 57  1  0
 57 58  2  0
 58 53  1  0
 58 59  1  0
 48 19  1  0
 19 60  1  0
 61 40  2  0
 40 62  1  0
M  END

> <chembl_id>
CHEMBL3526653

> <chembl_pref_name>
None

$$$$
 
     RDKit          2D

 41 43  0  0  0  0  0  0  0  0999 V2000
    8.4593   -7.9890    0.0000 C   0  0  0  0  0  0  0  0  0  0  0  0
    8.0503   -8.6921    0.0000 C   0  0  0  0  0  0  0  0  0  0  0  0
    8.4593   -9.3950    0.0000 S   0  0  0  0  0  0  0  0  0  0  0  0
    8.0547  -10.0938    0.0000 C   0  0  0  0  0  0  0  0  0  0  0  0
    8.4593  -10.7969    0.0000 C   0  0  0  0  0  0  0  0  0  0  0  0
    9.2728  -10.7969    0.0000 C   0  0  0  0  0  0  0  0  0  0  0  0
    9.2728   -7.9890    0.0000 N   0  0  0  0  0  0  0  0  0  0  0  0
   10.4963   -7.2888    0.0000 C   0  0  0  0  0  0  0  0  0  0  0  0
    9.6795   -7.2829    0.0000 C   0  0  0  0  0  0  0  0  0  0  0  0
    9.6816  -10.0938    0.0000 N   0  0  0  0  0  0  0  0  0  0  0  0
   10.9003   -7.9990    0.0000 N   0  0  0  0  0  0  0  0  0  0  0  0
    7.2369   -8.6932    0.0000 O   0  0  0  0  0  0  0  0  0  0  0  0
    9.2755   -6.5747    0.0000 O   0  0  0  0  0  0  0  0  0  0  0  0
   12.1258   -7.3172    0.0000 O   0  0  0  0  0  0  0  0  0  0  0  0
    9.6787  -11.5040    0.0000 O   0  0  0  0  0  0  0  0  0  0  0  0
    8.0532   -7.2819    0.0000 C   0  0  0  0  0  0  0  0  0  0  0  0
    7.2398   -7.2811    0.0000 C   0  0  0  0  0  0  0  0  0  0  0  0
   10.9074   -6.5846    0.0000 C   0  0  0  0  0  0  0  0  0  0  0  0
   10.5050   -5.8795    0.0000 C   0  0  0  0  0  0  0  0  0  0  0  0
    8.0516  -11.5031    0.0000 N   0  0  0  0  0  0  0  0  0  0  0  0
    7.2381  -11.4979    0.0000 C   0  0  0  0  0  0  0  0  0  0  0  0
    6.8305  -12.2040    0.0000 C   0  0  0  0  0  0  0  0  0  0  0  0
    6.8324  -10.7947    0.0000 O   0  0  0  0  0  0  0  0  0  0  0  0
    6.8363   -6.5717    0.0000 C   0  0  0  0  0  0  0  0  0  0  0  0
    6.0236   -6.5706    0.0000 C   0  0  0  0  0  0  0  0  0  0  0  0
    5.6153   -7.2774    0.0000 C   0  0  0  0  0  0  0  0  0  0  0  0
    6.0257   -7.9867    0.0000 C   0  0  0  0  0  0  0  0  0  0  0  0
    6.8371   -7.9844    0.0000 C   0  0  0  0  0  0  0  0  0  0  0  0
   10.4951  -10.0954    0.0000 C   0  0  0  0  0  0  0  0  0  0  0  0
   10.8952  -10.7982    0.0000 C   0  0  0  0  0  0  0  0  0  0  0  0
   11.7052  -10.8017    0.0000 O   0  0  0  0  0  0  0  0  0  0  0  0
   12.1148  -10.1004    0.0000 C   0  0  0  0  0  0  0  0  0  0  0  0
   12.9629   -9.8918    0.0000 C   0  0  0  0  0  0  0  0  0  0  0  0
   13.0003   -8.9606    0.0000 O   0  0  0  0  0  0  0  0  0  0  0  0
   11.7043   -8.0151    0.0000 C   0  0  0  0  0  0  0  0  0  0  0  0
   12.0963   -8.7300    0.0000 C   0  0  0  0  0  0  0  0  0  0  0  0
   10.9189   -5.1801    0.0000 C   0  0  0  0  0  0  0  0  0  0  0  0
   10.5171   -4.4755    0.0000 C   0  0  0  0  0  0  0  0  0  0  0  0
    9.7028   -4.4659    0.0000 C   0  0  0  0  0  0  0  0  0  0  0  0
    9.2919   -5.1750    0.0000 C   0  0  0  0  0  0  0  0  0  0  0  0
    9.6959   -5.8767    0.0000 C   0  0  0  0  0  0  0  0  0  0  0  0
  3  2  1  0
  7  1  1  0
  1  2  1  0
  3  4  1  0
  4  5  1  0
  5  6  1  0
  6 10  1  0
  7  9  1  0
 11  8  1  0
  8  9  1  0
 11 35  1  0
  2 12  2  0
  9 13  2  0
 35 14  2  0
  6 15  2  0
  1 16  1  6
 16 17  1  0
  8 18  1  6
 18 19  1  0
  5 20  1  1
 20 21  1  0
 21 22  1  0
 21 23  2  0
 17 24  2  0
 24 25  1  0
 25 26  2  0
 26 27  1  0
 27 28  2  0
 28 17  1  0
 10 29  1  0
 29 30  1  0
 30 31  1  0
 31 32  1  0
 32 33  1  0
 33 34  1  0
 35 36  1  0
 36 34  1  0
 19 37  2  0
 37 38  1  0
 38 39  2  0
 39 40  1  0
 40 41  2  0
 41 19  1  0
M  END

> <chembl_id>
CHEMBL4440385

> <chembl_pref_name>
None

$$$$

     RDKit          2D

 67 70  0  0  1  0  0  0  0  0999 V2000
    8.7375   -5.1042    0.0000 N   0  0  0  0  0  0  0  0  0  0  0  0
    8.7375   -6.0750    0.0000 C   0  0  0  0  0  0  0  0  0  0  0  0
    9.3042   -4.9375    0.0000 C   0  0  0  0  0  0  0  0  0  0  0  0
    9.3042   -4.3542    0.0000 C   0  0  0  0  0  0  0  0  0  0  0  0
    8.9042   -6.6167    0.0000 C   0  0  0  0  0  0  0  0  0  0  0  0
    6.4042   -7.6292    0.0000 C   0  0  0  0  0  0  0  0  0  0  0  0
    9.5292   -6.6167    0.0000 C   0  0  0  0  0  0  0  0  0  0  0  0
    8.7375   -4.1667    0.0000 N   0  0  0  0  0  0  0  0  0  0  0  0
    8.3917   -4.6292    0.0000 C   0  0  0  0  0  0  0  0  0  0  0  0
    9.2292   -5.7292    0.0000 O   0  0  0  0  0  0  0  0  0  0  0  0
   11.0500   -6.6042    0.0000 P   0  0  0  0  0  0  0  0  0  0  0  0
   11.8375   -7.5542    0.0000 P   0  0  0  0  0  0  0  0  0  0  0  0
   11.4500   -7.0875    0.0000 O   0  0  0  0  0  0  0  0  0  0  0  0
    9.6917   -6.0542    0.0000 C   0  0  0  0  0  0  0  0  0  0  0  0
    6.7042   -8.1542    0.0000 O   0  0  0  0  0  0  0  0  0  0  0  0
    9.6167   -7.6292    0.0000 P   0  0  0  0  0  0  0  0  0  0  0  0
    6.1042   -8.1542    0.0000 C   0  0  0  0  0  0  0  0  0  0  0  0
    6.8292   -7.2000    0.0000 C   0  0  0  0  0  0  0  0  0  0  0  0
    9.7917   -4.0542    0.0000 C   0  0  0  0  0  0  0  0  0  0  0  0
    9.8125   -5.2167    0.0000 N   0  0  0  0  0  0  0  0  0  0  0  0
    9.8542   -7.0875    0.0000 O   0  0  0  0  0  0  0  0  0  0  0  0
   10.2625   -4.3417    0.0000 N   0  0  0  0  0  0  0  0  0  0  0  0
   10.4792   -9.1167    0.0000 C   0  0  0  0  0  0  0  0  0  0  0  0
   11.7125   -9.0500    0.0000 C   0  0  0  0  0  0  0  0  0  0  0  0
   10.2167   -5.8917    0.0000 C   0  0  0  0  0  0  0  0  0  0  0  0
   11.0042   -8.8500    0.0000 C   0  0  0  0  0  0  0  0  0  0  0  0
   10.2625   -4.9167    0.0000 C   0  0  0  0  0  0  0  0  0  0  0  0
    8.3417   -9.1917    0.0000 C   0  0  0  0  0  0  0  0  0  0  0  0
   10.6792   -6.1542    0.0000 O   0  0  0  0  0  0  0  0  0  0  0  0
   12.2792   -8.1000    0.0000 O   0  0  0  0  0  0  0  0  0  0  0  0
   12.2667   -7.1917    0.0000 O   0  0  0  0  0  0  0  0  0  0  0  0
   10.6042   -6.9792    0.0000 O   0  0  0  0  0  0  0  0  0  0  0  0
    9.1292   -7.4042    0.0000 O   0  0  0  0  0  0  0  0  0  0  0  0
   12.2792   -8.7917    0.0000 C   0  0  0  0  0  0  0  0  0  0  0  0
    8.8500   -8.8667    0.0000 C   0  0  0  0  0  0  0  0  0  0  0  0
    6.6667   -6.6167    0.0000 O   0  0  0  0  0  0  0  0  0  0  0  0
   10.4792   -9.7125    0.0000 O   0  0  0  0  0  0  0  0  0  0  0  0
    8.3417   -9.8167    0.0000 O   0  0  0  0  0  0  0  0  0  0  0  0
    8.5792   -7.1042    0.0000 O   0  0  0  0  0  0  0  0  0  0  0  0
    9.8917   -8.8500    0.0000 N   0  0  0  0  0  0  0  0  0  0  0  0
   11.3917   -7.9167    0.0000 O   0  0  0  0  0  0  0  0  0  0  0  0
   11.5167   -6.1917    0.0000 O   0  0  0  0  0  0  0  0  0  0  0  0
    9.3375   -8.2542    0.0000 O   0  0  0  0  0  0  0  0  0  0  0  0
   10.1167   -7.8500    0.0000 O   0  0  0  0  0  0  0  0  0  0  0  0
    7.4125   -7.3500    0.0000 S   0  0  0  0  0  0  0  0  0  0  0  0
    9.7917   -3.4625    0.0000 N   0  0  0  0  0  0  0  0  0  0  0  0
    7.8667   -8.8875    0.0000 N   0  0  0  0  0  0  0  0  0  0  0  0
    5.9750   -7.2000    0.0000 C   0  0  0  0  0  0  0  0  0  0  0  0
    9.3750   -9.1500    0.0000 C   0  0  0  0  0  0  0  0  0  0  0  0
   11.0042   -8.2750    0.0000 O   0  0  0  0  0  0  0  0  0  0  0  0
   11.7000   -9.6167    0.0000 C   0  0  0  0  0  0  0  0  0  0  0  0
   11.7125   -8.4792    0.0000 C   0  0  0  0  0  0  0  0  0  0  0  0
    7.4125   -7.9542    0.0000 C   0  0  0  0  0  0  0  0  0  0  0  0
    7.8667   -8.2875    0.0000 C   0  0  0  0  0  0  0  0  0  0  0  0
    5.3917   -7.3542    0.0000 C   0  0  0  0  0  0  0  0  0  0  0  0
   -0.0583   -5.5750    0.0000 C   0  0  0  0  0  0  0  0  0  0  0  0
    0.3667   -6.0000    0.0000 C   0  0  0  0  0  0  0  0  0  0  0  0
    2.9542   -6.3792    0.0000 C   0  0  0  0  0  0  0  0  0  0  0  0
    2.3750   -6.5375    0.0000 C   0  0  0  0  0  0  0  0  0  0  0  0
    1.9542   -6.1167    0.0000 C   0  0  0  0  0  0  0  0  0  0  0  0
    1.3667   -6.2667    0.0000 C   0  0  0  0  0  0  0  0  0  0  0  0
    0.9500   -5.8417    0.0000 C   0  0  0  0  0  0  0  0  0  0  0  0
    4.9667   -6.9292    0.0000 C   0  0  0  0  0  0  0  0  0  0  0  0
    4.3792   -7.0792    0.0000 C   0  0  0  0  0  0  0  0  0  0  0  0
    3.9667   -6.6542    0.0000 C   0  0  0  0  0  0  0  0  0  0  0  0
    3.3792   -6.8125    0.0000 C   0  0  0  0  0  0  0  0  0  0  0  0
   -0.6375   -5.7292    0.0000 C   0  0  0  0  0  0  0  0  0  0  0  0
  2  1  1  6
  3  1  1  0
  4  3  2  0
  5  2  1  0
  6 18  1  0
  7  5  1  0
  8  9  2  0
  9  1  1  0
 10  2  1  0
 11 29  1  0
 12 13  1  0
 13 11  1  0
 14 10  1  0
  6 15  1  0
 16 21  1  0
  6 17  1  0
 18 45  1  0
 19  4  1  0
 20  3  1  0
  7 21  1  1
 22 27  1  0
 23 26  1  0
 24 34  1  0
 14 25  1  6
 26 24  1  0
 27 20  2  0
 28 35  1  0
 29 25  1  0
 30 12  1  0
 31 12  2  0
 32 11  2  0
 33 16  2  0
 34 30  1  0
 35 49  1  0
 36 18  2  0
 37 23  2  0
 38 28  2  0
  5 39  1  1
 40 23  1  0
 41 12  1  0
 42 11  1  0
 43 16  1  0
 44 16  1  0
 45 53  1  0
 46 19  1  0
 47 28  1  0
  6 48  1  6
 49 40  1  0
 50 26  1  0
 51 24  1  0
 52 24  1  0
 53 54  1  0
 54 47  1  0
 55 48  1  0
 56 57  1  0
 57 62  1  0
 58 66  1  0
 59 58  1  0
 60 59  1  0
 61 60  1  0
 62 61  1  0
 63 55  1  0
 64 63  1  0
 65 64  1  0
 66 65  1  0
 67 56  1  0
  4  8  1  0
  7 14  1  0
 19 22  2  0
 17 15  1  0
M  END

> <chembl_id>
CHEMBL273468

> <chembl_pref_name>
None

$$$$
 
     RDKit          2D

 59 60  0  0  0  0  0  0  0  0999 V2000
   19.3179   -7.3753    0.0000 C   0  0  0  0  0  0  0  0  0  0  0  0
   20.0261   -6.9643    0.0000 C   0  0  0  0  0  0  0  0  0  0  0  0
   20.7343   -7.3753    0.0000 N   0  0  0  0  0  0  0  0  0  0  0  0
   20.0261   -6.1462    0.0000 O   0  0  0  0  0  0  0  0  0  0  0  0
   21.4385   -6.9643    0.0000 C   0  0  0  0  0  0  0  0  0  0  0  0
   22.1464   -7.3762    0.0000 C   0  0  0  0  0  0  0  0  0  0  0  0
   21.4323   -6.1462    0.0000 C   0  0  0  0  0  0  0  0  0  0  0  0
   22.1486   -5.7409    0.0000 S   0  0  0  0  0  0  0  0  0  0  0  0
   22.8627   -4.5170    0.0000 C   0  0  0  0  0  0  0  0  0  0  0  0
   22.1492   -4.9240    0.0000 C   0  0  0  0  0  0  0  0  0  0  0  0
   23.5695   -4.9323    0.0000 N   0  0  0  0  0  0  0  0  0  0  0  0
   24.9880   -4.9482    0.0000 C   0  0  0  0  0  0  0  0  0  0  0  0
   24.2791   -4.5267    0.0000 C   0  0  0  0  0  0  0  0  0  0  0  0
   22.8501   -6.9682    0.0000 N   0  0  0  0  0  0  0  0  0  0  0  0
   23.5500   -7.3806    0.0000 C   0  0  0  0  0  0  0  0  0  0  0  0
   24.2589   -6.9761    0.0000 C   0  0  0  0  0  0  0  0  0  0  0  0
   24.9574   -7.3883    0.0000 N   0  0  0  0  0  0  0  0  0  0  0  0
   25.6703   -6.9863    0.0000 C   0  0  0  0  0  0  0  0  0  0  0  0
   25.6761   -6.1717    0.0000 C   0  0  0  0  0  0  0  0  0  0  0  0
   24.9692   -5.7591    0.0000 N   0  0  0  0  0  0  0  0  0  0  0  0
   21.4386   -4.5101    0.0000 O   0  0  0  0  0  0  0  0  0  0  0  0
   24.2872   -3.7086    0.0000 O   0  0  0  0  0  0  0  0  0  0  0  0
   26.3877   -5.7705    0.0000 O   0  0  0  0  0  0  0  0  0  0  0  0
   24.2649   -6.1581    0.0000 O   0  0  0  0  0  0  0  0  0  0  0  0
   22.1447   -8.1943    0.0000 O   0  0  0  0  0  0  0  0  0  0  0  0
   22.8680   -3.6989    0.0000 C   0  0  0  0  0  0  0  0  0  0  0  0
   22.1624   -3.2873    0.0000 C   0  0  0  0  0  0  0  0  0  0  0  0
   25.7026   -4.5483    0.0000 C   0  0  0  0  0  0  0  0  0  0  0  0
   25.7154   -3.7303    0.0000 C   0  0  0  0  0  0  0  0  0  0  0  0
   26.4299   -3.3344    0.0000 C   0  0  0  0  0  0  0  0  0  0  0  0
   25.0181   -3.3114    0.0000 C   0  0  0  0  0  0  0  0  0  0  0  0
   23.5443   -8.1977    0.0000 C   0  0  0  0  0  0  0  0  0  0  0  0
   23.5646   -5.7495    0.0000 C   0  0  0  0  0  0  0  0  0  0  0  0
   22.1660   -2.4701    0.0000 C   0  0  0  0  0  0  0  0  0  0  0  0
   21.4528   -3.6927    0.0000 C   0  0  0  0  0  0  0  0  0  0  0  0
   20.7353   -8.1925    0.0000 C   0  0  0  0  0  0  0  0  0  0  0  0
   18.6092   -6.9683    0.0000 N   0  0  0  0  0  0  0  0  0  0  0  0
   19.3197   -8.1925    0.0000 C   0  0  0  0  0  0  0  0  0  0  0  0
   18.6130   -8.6027    0.0000 C   0  0  0  0  0  0  0  0  0  0  0  0
   18.6148   -9.4199    0.0000 N   0  0  0  0  0  0  0  0  0  0  0  0
   17.9043   -8.1957    0.0000 O   0  0  0  0  0  0  0  0  0  0  0  0
   18.6074   -6.1511    0.0000 C   0  0  0  0  0  0  0  0  0  0  0  0
   17.8987   -5.7442    0.0000 C   0  0  0  0  0  0  0  0  0  0  0  0
   19.3142   -5.7409    0.0000 O   0  0  0  0  0  0  0  0  0  0  0  0
   17.1920   -6.1544    0.0000 N   0  0  0  0  0  0  0  0  0  0  0  0
   17.8969   -4.9270    0.0000 C   0  0  0  0  0  0  0  0  0  0  0  0
   18.6037   -4.5168    0.0000 C   0  0  0  0  0  0  0  0  0  0  0  0
   17.1882   -4.5200    0.0000 C   0  0  0  0  0  0  0  0  0  0  0  0
   19.3123   -4.9237    0.0000 C   0  0  0  0  0  0  0  0  0  0  0  0
   24.9494   -8.2055    0.0000 C   0  0  0  0  0  0  0  0  0  0  0  0
   25.6531   -8.6210    0.0000 C   0  0  0  0  0  0  0  0  0  0  0  0
   23.1290   -8.9024    0.0000 C   0  0  0  0  0  0  0  0  0  0  0  0
   22.3118   -8.8952    0.0000 O   0  0  0  0  0  0  0  0  0  0  0  0
   23.5313   -9.6138    0.0000 O   0  0  0  0  0  0  0  0  0  0  0  0
   25.6400   -9.4358    0.0000 C   0  0  0  0  0  0  0  0  0  0  0  0
   26.3428   -9.8512    0.0000 C   0  0  0  0  0  0  0  0  0  0  0  0
   27.0555   -9.4496    0.0000 C   0  0  0  0  0  0  0  0  0  0  0  0
   27.0609   -8.6281    0.0000 C   0  0  0  0  0  0  0  0  0  0  0  0
   26.3575   -8.2164    0.0000 C   0  0  0  0  0  0  0  0  0  0  0  0
  1  2  1  0
  2  3  1  0
  2  4  2  0
  5  3  1  0
  5  6  1  0
  5  7  1  6
  6 14  1  0
  8  7  1  0
  8 10  1  0
 11  9  1  0
  9 10  1  0
 11 13  1  0
 12 20  1  0
 12 13  1  0
 14 15  1  0
 15 16  1  0
 16 17  1  0
 17 18  1  0
 18 19  1  0
 19 20  1  0
 10 21  2  0
 13 22  2  0
 19 23  2  0
 16 24  2  0
  6 25  2  0
  9 26  1  1
 26 27  1  0
 12 28  1  1
 28 29  1  0
 29 30  1  0
 29 31  1  0
 15 32  1  1
 11 33  1  0
 27 34  1  0
 27 35  1  0
  3 36  1  0
  1 37  1  0
  1 38  1  1
 38 39  1  0
 39 40  1  0
 39 41  2  0
 37 42  1  0
 42 43  1  0
 42 44  2  0
 43 45  1  1
 43 46  1  0
 46 47  1  0
 46 48  1  6
 47 49  1  0
 17 50  1  0
 50 51  1  0
 32 52  1  0
 52 53  2  0
 52 54  1  0
 51 55  2  0
 55 56  1  0
 56 57  2  0
 57 58  1  0
 58 59  2  0
 59 51  1  0
M  END

> <chembl_id>
CHEMBL4541971

> <chembl_pref_name>
None

$$$$
 
     RDKit          2D

 19 20  0  0  0  0  0  0  0  0999 V2000
    3.4718   -3.4033    0.0000 C   0  0  0  0  0  0  0  0  0  0  0  0
    2.8044   -3.8882    0.0000 C   0  0  0  0  0  0  0  0  0  0  0  0
    3.3856   -2.5828    0.0000 O   0  0  0  0  0  0  0  0  0  0  0  0
    4.2255   -3.7389    0.0000 S   0  0  0  0  0  0  0  0  0  0  0  0
    6.1625   -2.8414    0.0000 N   0  0  0  0  0  0  0  0  0  0  0  0
    5.6775   -3.5089    0.0000 C   0  0  0  0  0  0  0  0  0  0  0  0
    4.8929   -3.2539    0.0000 C   0  0  0  0  0  0  0  0  0  0  0  0
    4.8929   -2.4289    0.0000 C   0  0  0  0  0  0  0  0  0  0  0  0
    5.6775   -2.1740    0.0000 C   0  0  0  0  0  0  0  0  0  0  0  0
    5.9325   -1.3894    0.0000 O   0  0  0  0  0  0  0  0  0  0  0  0
    5.9325   -4.2935    0.0000 O   0  0  0  0  0  0  0  0  0  0  0  0
    6.9875   -2.8414    0.0000 C   0  0  0  0  0  0  0  0  0  0  0  0
    7.4000   -2.1270    0.0000 C   0  0  0  0  0  0  0  0  0  0  0  0
    8.2250   -2.1270    0.0000 C   0  0  0  0  0  0  0  0  0  0  0  0
    8.6375   -2.8414    0.0000 C   0  0  0  0  0  0  0  0  0  0  0  0
    8.2250   -3.5559    0.0000 C   0  0  0  0  0  0  0  0  0  0  0  0
    7.4000   -3.5559    0.0000 C   0  0  0  0  0  0  0  0  0  0  0  0
    9.4625   -2.8414    0.0000 Cl  0  0  0  0  0  0  0  0  0  0  0  0
    8.6375   -1.4125    0.0000 Cl  0  0  0  0  0  0  0  0  0  0  0  0
  1  2  1  0
  1  3  2  0
  1  4  1  0
  5  6  1  0
  6  7  1  0
  7  8  1  0
  8  9  1  0
  5  9  1  0
  9 10  2  0
  6 11  2  0
 12 13  1  0
 13 14  2  0
 14 15  1  0
 15 16  2  0
 16 17  1  0
 12 17  2  0
 15 18  1  0
 14 19  1  0
  5 12  1  0
  4  7  1  0
M  END

> <chembl_id>
CHEMBL4633603

> <chembl_pref_name>
None

$$$$
 
     RDKit          2D

 57 59  0  0  0  0  0  0  0  0999 V2000
   10.3159   -4.0982    0.0000 N   0  0  0  0  0  0  0  0  0  0  0  0
   11.0002   -4.4985    0.0000 C   0  0  0  0  0  0  0  0  0  0  0  0
   11.6887   -5.6830    0.0000 O   0  0  0  0  0  0  0  0  0  0  0  0
   11.0002   -5.2868    0.0000 C   0  0  0  0  0  0  0  0  0  0  0  0
   11.6887   -4.0982    0.0000 C   0  0  0  0  0  0  0  0  0  0  0  0
   10.3159   -5.6830    0.0000 N   0  0  0  0  0  0  0  0  0  0  0  0
   10.3159   -6.4713    0.0000 C   0  0  0  0  0  0  0  0  0  0  0  0
    8.9472   -6.4713    0.0000 O   0  0  0  0  0  0  0  0  0  0  0  0
    9.6316   -6.8717    0.0000 C   0  0  0  0  0  0  0  0  0  0  0  0
    9.6316   -7.6600    0.0000 N   0  0  0  0  0  0  0  0  0  0  0  0
    8.9472   -8.0603    0.0000 C   0  0  0  0  0  0  0  0  0  0  0  0
    9.6316   -9.2448    0.0000 O   0  0  0  0  0  0  0  0  0  0  0  0
    8.9472   -8.8486    0.0000 C   0  0  0  0  0  0  0  0  0  0  0  0
    8.2547   -7.6600    0.0000 C   0  0  0  0  0  0  0  0  0  0  0  0
    8.2547   -6.8717    0.0000 S   0  0  0  0  0  0  0  0  0  0  0  0
    8.2547   -9.2448    0.0000 N   0  0  0  0  0  0  0  0  0  0  0  0
    8.2547  -10.0331    0.0000 C   0  0  0  0  0  0  0  0  0  0  0  0
    7.5745  -11.2218    0.0000 O   0  0  0  0  0  0  0  0  0  0  0  0
    7.5745  -10.4335    0.0000 C   0  0  0  0  0  0  0  0  0  0  0  0
    8.9472  -10.4335    0.0000 C   0  0  0  0  0  0  0  0  0  0  0  0
    6.8901  -10.0331    0.0000 N   0  0  0  0  0  0  0  0  0  0  0  0
    6.2017  -10.4335    0.0000 C   0  0  0  0  0  0  0  0  0  0  0  0
    4.8330  -10.4335    0.0000 O   0  0  0  0  0  0  0  0  0  0  0  0
    5.5174  -10.0331    0.0000 C   0  0  0  0  0  0  0  0  0  0  0  0
    6.2017  -11.2218    0.0000 C   0  0  0  0  0  0  0  0  0  0  0  0
    5.5174   -9.2448    0.0000 N   0  0  0  0  0  0  0  0  0  0  0  0
    4.8330   -8.8486    0.0000 C   0  0  0  0  0  0  0  0  0  0  0  0
    4.1446   -7.6600    0.0000 O   0  0  0  0  0  0  0  0  0  0  0  0
    4.8330   -8.0603    0.0000 C   0  0  0  0  0  0  0  0  0  0  0  0
    4.1446   -9.2448    0.0000 C   0  0  0  0  0  0  0  0  0  0  0  0
    5.5174   -7.6600    0.0000 N   0  0  0  0  0  0  0  0  0  0  0  0
    5.5174   -6.8717    0.0000 C   0  0  0  0  0  0  0  0  0  0  0  0
    6.2017   -5.6830    0.0000 O   0  0  0  0  0  0  0  0  0  0  0  0
    6.2017   -6.4713    0.0000 C   0  0  0  0  0  0  0  0  0  0  0  0
    4.8330   -6.4713    0.0000 C   0  0  0  0  0  0  0  0  0  0  0  0
   11.6867   -3.2892    0.0000 O   0  0  0  0  0  0  0  0  0  0  0  0
    3.4450   -8.8405    0.0000 C   0  0  0  0  0  0  0  0  0  0  0  0
    4.8371   -5.6624    0.0000 C   0  0  0  0  0  0  0  0  0  0  0  0
    5.5374   -5.2653    0.0000 C   0  0  0  0  0  0  0  0  0  0  0  0
    5.5418   -4.4571    0.0000 C   0  0  0  0  0  0  0  0  0  0  0  0
    4.8439   -4.0483    0.0000 C   0  0  0  0  0  0  0  0  0  0  0  0
    4.1359   -4.4536    0.0000 C   0  0  0  0  0  0  0  0  0  0  0  0
    4.1350   -5.2604    0.0000 C   0  0  0  0  0  0  0  0  0  0  0  0
   11.0248   -6.8779    0.0000 C   0  0  0  0  0  0  0  0  0  0  0  0
   11.0271   -7.6951    0.0000 C   0  0  0  0  0  0  0  0  0  0  0  0
   11.7313   -6.4673    0.0000 C   0  0  0  0  0  0  0  0  0  0  0  0
    3.4469   -8.0315    0.0000 C   0  0  0  0  0  0  0  0  0  0  0  0
    2.7481   -7.6273    0.0000 C   0  0  0  0  0  0  0  0  0  0  0  0
    2.0473   -8.0311    0.0000 C   0  0  0  0  0  0  0  0  0  0  0  0
    2.0495   -8.8432    0.0000 C   0  0  0  0  0  0  0  0  0  0  0  0
    2.7488   -9.2438    0.0000 C   0  0  0  0  0  0  0  0  0  0  0  0
    1.3392   -7.6231    0.0000 O   0  0  0  0  0  0  0  0  0  0  0  0
   10.3206   -3.2810    0.0000 C   0  0  0  0  0  0  0  0  0  0  0  0
    9.6152   -2.8683    0.0000 C   0  0  0  0  0  0  0  0  0  0  0  0
   11.0306   -2.8765    0.0000 O   0  0  0  0  0  0  0  0  0  0  0  0
    9.6199   -2.0512    0.0000 C   0  0  0  0  0  0  0  0  0  0  0  0
    8.9052   -3.2729    0.0000 N   0  0  0  0  0  0  0  0  0  0  0  0
  4  6  1  0
  9 10  1  0
 13 16  1  0
 19 21  1  0
 24 26  1  0
 29 31  1  0
  2  1  1  1
  2  4  1  0
  4  3  2  0
  2  5  1  0
  7  6  1  1
  7  9  1  0
  9  8  2  0
 10 11  1  0
 11 13  1  0
 13 12  2  0
 11 14  1  6
 14 15  1  0
 17 16  1  1
 17 19  1  0
 19 18  2  0
 17 20  1  0
 22 21  1  1
 22 24  1  0
 24 23  2  0
 22 25  1  0
 27 26  1  1
 27 29  1  0
 29 28  2  0
 27 30  1  0
 32 31  1  1
 32 34  1  0
 34 33  2  0
 32 35  1  0
 34 15  1  0
  5 36  1  0
 30 37  1  0
 35 38  1  0
 38 39  2  0
 39 40  1  0
 40 41  2  0
 41 42  1  0
 42 43  2  0
 43 38  1  0
  7 44  1  0
 44 45  1  0
 44 46  1  0
 37 47  2  0
 47 48  1  0
 48 49  2  0
 49 50  1  0
 50 51  2  0
 51 37  1  0
 49 52  1  0
  1 53  1  0
 53 54  1  0
 53 55  2  0
 54 56  1  1
 54 57  1  0
M  END

> <chembl_id>
CHEMBL4518348

> <chembl_pref_name>
None

$$$$
 
     RDKit          2D

 41 42  0  0  0  0  0  0  0  0999 V2000
   17.6267   -7.0411    0.0000 C   0  0  0  0  0  0  0  0  0  0  0  0
   18.3386   -6.6283    0.0000 C   0  0  0  0  0  0  0  0  0  0  0  0
   19.0504   -7.0411    0.0000 N   0  0  0  0  0  0  0  0  0  0  0  0
   18.3386   -5.8070    0.0000 O   0  0  0  0  0  0  0  0  0  0  0  0
   19.7581   -6.6283    0.0000 C   0  0  0  0  0  0  0  0  0  0  0  0
   20.4653   -7.0420    0.0000 C   0  0  0  0  0  0  0  0  0  0  0  0
   19.7517   -5.8070    0.0000 C   0  0  0  0  0  0  0  0  0  0  0  0
   20.4676   -5.4003    0.0000 S   0  0  0  0  0  0  0  0  0  0  0  0
   21.1855   -4.1716    0.0000 C   0  0  0  0  0  0  0  0  0  0  0  0
   20.4682   -4.5802    0.0000 C   0  0  0  0  0  0  0  0  0  0  0  0
   21.8959   -4.5888    0.0000 N   0  0  0  0  0  0  0  0  0  0  0  0
   23.3175   -4.6052    0.0000 C   0  0  0  0  0  0  0  0  0  0  0  0
   22.6092   -4.1816    0.0000 C   0  0  0  0  0  0  0  0  0  0  0  0
   21.1725   -6.6324    0.0000 N   0  0  0  0  0  0  0  0  0  0  0  0
   21.8757   -7.0465    0.0000 C   0  0  0  0  0  0  0  0  0  0  0  0
   22.5883   -6.6406    0.0000 C   0  0  0  0  0  0  0  0  0  0  0  0
   23.2901   -7.0545    0.0000 N   0  0  0  0  0  0  0  0  0  0  0  0
   24.0024   -6.6511    0.0000 C   0  0  0  0  0  0  0  0  0  0  0  0
   24.0085   -5.8334    0.0000 C   0  0  0  0  0  0  0  0  0  0  0  0
   23.3022   -5.4191    0.0000 N   0  0  0  0  0  0  0  0  0  0  0  0
   19.7581   -4.1645    0.0000 O   0  0  0  0  0  0  0  0  0  0  0  0
   22.6176   -3.3604    0.0000 O   0  0  0  0  0  0  0  0  0  0  0  0
   24.7238   -5.4308    0.0000 O   0  0  0  0  0  0  0  0  0  0  0  0
   22.5945   -5.8193    0.0000 O   0  0  0  0  0  0  0  0  0  0  0  0
   20.4635   -7.8633    0.0000 O   0  0  0  0  0  0  0  0  0  0  0  0
   21.8698   -7.8678    0.0000 C   0  0  0  0  0  0  0  0  0  0  0  0
   24.7065   -7.0701    0.0000 C   0  0  0  0  0  0  0  0  0  0  0  0
   24.6992   -7.8914    0.0000 C   0  0  0  0  0  0  0  0  0  0  0  0
   24.0359   -4.2040    0.0000 C   0  0  0  0  0  0  0  0  0  0  0  0
   24.0491   -3.3828    0.0000 C   0  0  0  0  0  0  0  0  0  0  0  0
   21.1910   -3.3503    0.0000 C   0  0  0  0  0  0  0  0  0  0  0  0
   20.4819   -2.9370    0.0000 C   0  0  0  0  0  0  0  0  0  0  0  0
   24.7633   -2.9856    0.0000 C   0  0  0  0  0  0  0  0  0  0  0  0
   23.3481   -2.9628    0.0000 C   0  0  0  0  0  0  0  0  0  0  0  0
   23.9879   -8.2937    0.0000 C   0  0  0  0  0  0  0  0  0  0  0  0
   25.4033   -8.3062    0.0000 C   0  0  0  0  0  0  0  0  0  0  0  0
   20.4906   -2.1177    0.0000 C   0  0  0  0  0  0  0  0  0  0  0  0
   19.7823   -1.7045    0.0000 C   0  0  0  0  0  0  0  0  0  0  0  0
   19.0688   -2.1120    0.0000 C   0  0  0  0  0  0  0  0  0  0  0  0
   19.0681   -2.9370    0.0000 C   0  0  0  0  0  0  0  0  0  0  0  0
   19.7769   -3.3465    0.0000 C   0  0  0  0  0  0  0  0  0  0  0  0
  1  2  1  0
  2  3  1  0
  2  4  2  0
  5  3  1  6
  5  6  1  0
  5  7  1  0
  6 14  1  0
  8  7  1  0
  8 10  1  0
 11  9  1  0
  9 10  1  0
 11 13  1  0
 12 20  1  0
 12 13  1  0
 14 15  1  0
 15 16  1  0
 16 17  1  0
 17 18  1  0
 18 19  1  0
 19 20  1  0
 10 21  2  0
 13 22  2  0
 19 23  2  0
 16 24  2  0
  6 25  2  0
 15 26  1  1
 18 27  1  1
 27 28  1  0
 12 29  1  1
 29 30  1  0
  9 31  1  1
 31 32  1  0
 30 33  1  0
 30 34  1  0
 28 35  1  0
 28 36  1  0
 32 37  2  0
 37 38  1  0
 38 39  2  0
 39 40  1  0
 40 41  2  0
 41 32  1  0
M  END

> <chembl_id>
CHEMBL4582329

> <chembl_pref_name>
None

$$$$
