@<TRIPOS>MOLECULE
1bvr
61 60 1 0 0
SMALL
NO_CHARGES


@<TRIPOS>ATOM
      1 C1         21.2120  -15.3430  -13.7450 C.3       1 THT    0.0000
      2 C2         21.1300  -14.2760  -12.6460 C.2       1 THT    0.0000
      3 O2         21.8420  -14.3570  -11.6160 O.2       1 THT    0.0000
      4 N3         20.2880  -13.2570  -12.8440 N.am      1 THT    0.0000
      5 C4         19.2570  -12.8720  -11.9080 C.3       1 THT    0.0000
      6 C5         19.0340  -13.8930  -10.8120 C.3       1 THT    0.0000
      7 S6         17.4250  -14.6490  -11.0170 S.3       1 THT    0.0000
      8 C7         16.1640  -13.8120   -9.9750 C.2       1 THT    0.0000
      9 O7         16.3640  -12.6580   -9.5730 O.2       1 THT    0.0000
     10 C8         14.8610  -14.5330   -9.6100 C.2       1 THT    0.0000
     11 C9         13.8940  -13.9000   -8.8620 C.2       1 THT    0.0000
     12 C10        12.6310  -14.6360   -8.4630 C.3       1 THT    0.0000
     13 C11        12.6210  -14.6990   -6.9450 C.3       1 THT    0.0000
     14 C12        12.5100  -16.0980   -6.4280 C.3       1 THT    0.0000
     15 C13        13.1060  -16.1000   -5.0350 C.3       1 THT    0.0000
     16 C14        13.7130  -17.4670   -4.7480 C.3       1 THT    0.0000
     17 C15        14.9080  -17.7320   -5.6830 C.3       1 THT    0.0000
     18 C16        16.2190  -17.4730   -4.9520 C.3       1 THT    0.0000
     19 C17        17.2570  -17.0140   -5.9420 C.3       1 THT    0.0000
     20 C18        17.3060  -17.9680   -7.1280 C.3       1 THT    0.0000
     21 C19        18.4870  -18.9050   -6.9500 C.3       1 THT    0.0000
     22 C20        19.8020  -18.1810   -7.2370 C.3       1 THT    0.0000
     23 C21        20.1470  -18.3120   -8.7200 C.3       1 THT    0.0000
     24 C22        21.4240  -19.1240   -8.8740 C.3       1 THT    0.0000
     25 H3         20.3778  -12.7251  -13.6979 H         1 THT    0.0000
     26 H42        18.3234  -12.7422  -12.4554 H         1 THT    0.0000
     27 H43        19.5328  -11.9211  -11.4522 H         1 THT    0.0000
     28 H52        19.0822  -13.3997   -9.8412 H         1 THT    0.0000
     29 H53        19.8058  -14.6606  -10.8681 H         1 THT    0.0000
     30 H8         14.7002  -15.5477   -9.9431 H         1 THT    0.0000
     31 H9         14.0363  -12.8735   -8.5580 H         1 THT    0.0000
     32 H102       12.6359  -15.6430   -8.8803 H         1 THT    0.0000
     33 H103       11.7560  -14.0913   -8.8178 H         1 THT    0.0000
     34 H112       13.5468  -14.2614   -6.5715 H         1 THT    0.0000
     35 H113       11.7786  -14.1162   -6.5723 H         1 THT    0.0000
     36 H122       13.0626  -16.7810   -7.0732 H         1 THT    0.0000
     37 H123       11.4622  -16.3953   -6.3838 H         1 THT    0.0000
     38 H132       13.8814  -15.3367   -4.9700 H         1 THT    0.0000
     39 H133       12.3249  -15.8882   -4.3048 H         1 THT    0.0000
     40 H142       12.9566  -18.2358   -4.9057 H         1 THT    0.0000
     41 H143       14.0511  -17.5011   -3.7123 H         1 THT    0.0000
     42 H152       14.8809  -18.7696   -6.0156 H         1 THT    0.0000
     43 H153       14.8415  -17.0735   -6.5491 H         1 THT    0.0000
     44 H162       16.0689  -16.7009   -4.1973 H         1 THT    0.0000
     45 H163       16.5554  -18.3916   -4.4712 H         1 THT    0.0000
     46 H172       18.2328  -16.9915   -5.4569 H         1 THT    0.0000
     47 H173       17.0045  -16.0134   -6.2930 H         1 THT    0.0000
     48 H182       16.3828  -18.5458   -7.1722 H         1 THT    0.0000
     49 H183       17.4260  -17.3993   -8.0501 H         1 THT    0.0000
     50 H192       18.3839  -19.7444   -7.6376 H         1 THT    0.0000
     51 H193       18.4984  -19.2785   -5.9260 H         1 THT    0.0000
     52 H202       20.5981  -18.6246   -6.6390 H         1 THT    0.0000
     53 H203       19.6995  -17.1267   -6.9800 H         1 THT    0.0000
     54 H212       20.2935  -17.3202   -9.1478 H         1 THT    0.0000
     55 H213       19.3316  -18.8151   -9.2397 H         1 THT    0.0000
     56 H221       21.6703  -19.2176   -9.9317 H         1 THT    0.0000
     57 H222       22.2393  -18.6205   -8.3545 H         1 THT    0.0000
     58 H223       21.2779  -20.1157   -8.4458 H         1 THT    0.0000
     59 H11        21.9312  -16.1091  -13.4554 H         1 THT    0.0000
     60 H12        20.2315  -15.7989  -13.8824 H         1 THT    0.0000
     61 H13        21.5311  -14.8794  -14.6784 H         1 THT    0.0000
@<TRIPOS>BOND
     1    1    2 1
     2    2    3 2
     3    2    4 am
     4    4    5 1
     5    5    6 1
     6    6    7 1
     7    7    8 1
     8    8    9 2
     9    8   10 2
    10   10   11 2
    11   11   12 1
    12   12   13 1
    13   13   14 1
    14   14   15 1
    15   15   16 1
    16   16   17 1
    17   17   18 1
    18   18   19 1
    19   19   20 1
    20   20   21 1
    21   21   22 1
    22   22   23 1
    23   23   24 1
    24   25    4 1
    25   26    5 1
    26   27    5 1
    27   28    6 1
    28   29    6 1
    29   30   10 1
    30   31   11 1
    31   32   12 1
    32   33   12 1
    33   34   13 1
    34   35   13 1
    35   36   14 1
    36   37   14 1
    37   38   15 1
    38   39   15 1
    39   40   16 1
    40   41   16 1
    41   42   17 1
    42   43   17 1
    43   44   18 1
    44   45   18 1
    45   46   19 1
    46   47   19 1
    47   48   20 1
    48   49   20 1
    49   50   21 1
    50   51   21 1
    51   52   22 1
    52   53   22 1
    53   54   23 1
    54   55   23 1
    55   56   24 1
    56   57   24 1
    57   58   24 1
    58   59    1 1
    59   60    1 1
    60   61    1 1
@<TRIPOS>SUBSTRUCTURE
     1 THT     1 RESIDUE           4 B     THT     0 ROOT
